 
 
 **********************************************
    NUMERICAL ELECTROMAGNETICS CODE (NEC-2D-P)
 **********************************************
 
 Enhanced version, copyright 1997-2003 Nittany Scientific
 
 Run date:  20:50:17 on 02-JAN-2012
 
 Parameter dimensions:
 
   NEC2D Version:  3.2NA
   Maximum # of segments:          2000
   Maximum # of segments in core:           640
   Maximum # of new connections to NGF segments:           180
   Maximum # of sources:            60
   Maximum # of degrees of symmetry:           360
   Maximum # of networks:            90
   Maximum # of segments at a junction:            90
   Maximum # of loads:           300
   Maximum # of frequencies or angles:           361
 
 **********************************************
 
1



                                 *********************************************

                                    NUMERICAL ELECTROMAGNETICS CODE (NEC-2D)

                                 *********************************************




                                     - - - - COMMENTS - - - -


  AC6P Dual 7-element 2M CP Satellite Yagi antenna                                                                               
                                                                                                                                 
  *** DEFINE A SINGLE 7-ELEMENT HORIZONTAL REF. YAGI




                                 - - - STRUCTURE SPECIFICATION - - -

                                     COORDINATES MUST BE INPUT IN
                                     METERS OR BE SCALED TO METERS
                                     BEFORE STRUCTURE INPUT IS ENDED


  WIRE                                                                               NO. OF    FIRST  LAST     TAG
  NO.        X1         Y1         Z1          X2         Y2         Z2      RADIUS   SEG.     SEG.   SEG.     NO.
     1  -41.50000  -50.85000    0.00000   -41.50000   50.85000    0.00000    0.35000     15        1    15       1
     2    0.00000  -46.25000    0.00000     0.00000   46.25000    0.00000    1.27000      9       16    24       2
     3   41.50000  -45.07500    0.00000    41.50000   45.07500    0.00000    0.35000      9       25    33       3
     4   83.00000  -44.40000    0.00000    83.00000   44.40000    0.00000    0.35000      9       34    42       4
      THE STRUCTURE HAS BEEN MOVED, MOVE DATA CARD IS -
        1    3   0.00000   0.00000   0.00000  41.50000   0.00000   0.00000   4.30000
       GM command acting on tag #'s            4 through          300
  inclusive.
  *** CREATE AN IDENTICAL VERTICAL BEAM 0.25 WAVELENGTH AWAY
      THE STRUCTURE HAS BEEN MOVED, MOVE DATA CARD IS -
       50    1  90.00000   0.00000   0.00000  51.50000   0.00000   0.00000   1.30000
       GM command acting on tag #'s            1 through          300
  inclusive.
      STRUCTURE SCALED BY FACTOR   0.01000

   TOTAL SEGMENTS USED=  138     NO. SEG. IN A SYMMETRIC CELL=  138     SYMMETRY FLAG=  0


         - MULTIPLE WIRE JUNCTIONS -
 JUNCTION    SEGMENTS  (- FOR END 1, + FOR END 2)
  NONE




                                 - - - - SEGMENTATION DATA - - - -

                                        COORDINATES IN METERS

                         I+ AND I- INDICATE THE SEGMENTS BEFORE AND AFTER I


  SEG.     COORDINATES OF SEG. CENTER       SEG.     ORIENTATION ANGLES    WIRE    CONNECTION DATA   TAG
  NO.        X          Y          Z        LENGTH     ALPHA     BETA      RADIUS    I-   I    I+    NO.
     1   -0.41500   -0.47460    0.00000    0.06780    0.00000  90.00000   0.00350     0    1    2      1
     2   -0.41500   -0.40680    0.00000    0.06780    0.00000  90.00000   0.00350     1    2    3      1
     3   -0.41500   -0.33900    0.00000    0.06780    0.00000  90.00000   0.00350     2    3    4      1
     4   -0.41500   -0.27120    0.00000    0.06780    0.00000  90.00000   0.00350     3    4    5      1
     5   -0.41500   -0.20340    0.00000    0.06780    0.00000  90.00000   0.00350     4    5    6      1
     6   -0.41500   -0.13560    0.00000    0.06780    0.00000  90.00000   0.00350     5    6    7      1
     7   -0.41500   -0.06780    0.00000    0.06780    0.00000  90.00000   0.00350     6    7    8      1
     8   -0.41500    0.00000    0.00000    0.06780    0.00000  90.00000   0.00350     7    8    9      1
     9   -0.41500    0.06780    0.00000    0.06780    0.00000  90.00000   0.00350     8    9   10      1
    10   -0.41500    0.13560    0.00000    0.06780    0.00000  90.00000   0.00350     9   10   11      1
    11   -0.41500    0.20340    0.00000    0.06780    0.00000  90.00000   0.00350    10   11   12      1
    12   -0.41500    0.27120    0.00000    0.06780    0.00000  90.00000   0.00350    11   12   13      1
    13   -0.41500    0.33900    0.00000    0.06780    0.00000  90.00000   0.00350    12   13   14      1
    14   -0.41500    0.40680    0.00000    0.06780    0.00000  90.00000   0.00350    13   14   15      1
    15   -0.41500    0.47460    0.00000    0.06780    0.00000  90.00000   0.00350    14   15    0      1
    16    0.00000   -0.41111    0.00000    0.10278    0.00000  90.00000   0.01270     0   16   17      2
    17    0.00000   -0.30833    0.00000    0.10278    0.00000  90.00000   0.01270    16   17   18      2
    18    0.00000   -0.20556    0.00000    0.10278    0.00000  90.00000   0.01270    17   18   19      2
    19    0.00000   -0.10278    0.00000    0.10278    0.00000  90.00000   0.01270    18   19   20      2
    20    0.00000    0.00000    0.00000    0.10278    0.00000  90.00000   0.01270    19   20   21      2
    21    0.00000    0.10278    0.00000    0.10278    0.00000  90.00000   0.01270    20   21   22      2
    22    0.00000    0.20556    0.00000    0.10278    0.00000  90.00000   0.01270    21   22   23      2
    23    0.00000    0.30833    0.00000    0.10278    0.00000  90.00000   0.01270    22   23   24      2
    24    0.00000    0.41111    0.00000    0.10278    0.00000  90.00000   0.01270    23   24    0      2
    25    0.41500   -0.40067    0.00000    0.10017    0.00000  90.00000   0.00350     0   25   26      3
    26    0.41500   -0.30050    0.00000    0.10017    0.00000  90.00000   0.00350    25   26   27      3
    27    0.41500   -0.20033    0.00000    0.10017    0.00000  90.00000   0.00350    26   27   28      3
    28    0.41500   -0.10017    0.00000    0.10017    0.00000  90.00000   0.00350    27   28   29      3
    29    0.41500    0.00000    0.00000    0.10017    0.00000  90.00000   0.00350    28   29   30      3
    30    0.41500    0.10017    0.00000    0.10017    0.00000  90.00000   0.00350    29   30   31      3
    31    0.41500    0.20033    0.00000    0.10017    0.00000  90.00000   0.00350    30   31   32      3
    32    0.41500    0.30050    0.00000    0.10017    0.00000  90.00000   0.00350    31   32   33      3
    33    0.41500    0.40067    0.00000    0.10017    0.00000  90.00000   0.00350    32   33    0      3
    34    0.83000   -0.39467    0.00000    0.09867    0.00000  90.00000   0.00350     0   34   35      4
    35    0.83000   -0.29600    0.00000    0.09867    0.00000  90.00000   0.00350    34   35   36      4
    36    0.83000   -0.19733    0.00000    0.09867    0.00000  90.00000   0.00350    35   36   37      4
    37    0.83000   -0.09867    0.00000    0.09867    0.00000  90.00000   0.00350    36   37   38      4
    38    0.83000    0.00000    0.00000    0.09867    0.00000  90.00000   0.00350    37   38   39      4
    39    0.83000    0.09867    0.00000    0.09867    0.00000  90.00000   0.00350    38   39   40      4
    40    0.83000    0.19733    0.00000    0.09867    0.00000  90.00000   0.00350    39   40   41      4
    41    0.83000    0.29600    0.00000    0.09867    0.00000  90.00000   0.00350    40   41   42      4
    42    0.83000    0.39467    0.00000    0.09867    0.00000  90.00000   0.00350    41   42    0      4
    43    1.24500   -0.39467    0.00000    0.09867    0.00000  90.00000   0.00350     0   43   44      5
    44    1.24500   -0.29600    0.00000    0.09867    0.00000  90.00000   0.00350    43   44   45      5
    45    1.24500   -0.19733    0.00000    0.09867    0.00000  90.00000   0.00350    44   45   46      5
    46    1.24500   -0.09867    0.00000    0.09867    0.00000  90.00000   0.00350    45   46   47      5
    47    1.24500    0.00000    0.00000    0.09867    0.00000  90.00000   0.00350    46   47   48      5
    48    1.24500    0.09867    0.00000    0.09867    0.00000  90.00000   0.00350    47   48   49      5
    49    1.24500    0.19733    0.00000    0.09867    0.00000  90.00000   0.00350    48   49   50      5
    50    1.24500    0.29600    0.00000    0.09867    0.00000  90.00000   0.00350    49   50   51      5
    51    1.24500    0.39467    0.00000    0.09867    0.00000  90.00000   0.00350    50   51    0      5
    52    1.66000   -0.39467    0.00000    0.09867    0.00000  90.00000   0.00350     0   52   53      6
    53    1.66000   -0.29600    0.00000    0.09867    0.00000  90.00000   0.00350    52   53   54      6
    54    1.66000   -0.19733    0.00000    0.09867    0.00000  90.00000   0.00350    53   54   55      6
    55    1.66000   -0.09867    0.00000    0.09867    0.00000  90.00000   0.00350    54   55   56      6
    56    1.66000    0.00000    0.00000    0.09867    0.00000  90.00000   0.00350    55   56   57      6
    57    1.66000    0.09867    0.00000    0.09867    0.00000  90.00000   0.00350    56   57   58      6
    58    1.66000    0.19733    0.00000    0.09867    0.00000  90.00000   0.00350    57   58   59      6
    59    1.66000    0.29600    0.00000    0.09867    0.00000  90.00000   0.00350    58   59   60      6
    60    1.66000    0.39467    0.00000    0.09867    0.00000  90.00000   0.00350    59   60    0      6
    61    2.07500   -0.39467    0.00000    0.09867    0.00000  90.00000   0.00350     0   61   62      7
    62    2.07500   -0.29600    0.00000    0.09867    0.00000  90.00000   0.00350    61   62   63      7
    63    2.07500   -0.19733    0.00000    0.09867    0.00000  90.00000   0.00350    62   63   64      7
    64    2.07500   -0.09867    0.00000    0.09867    0.00000  90.00000   0.00350    63   64   65      7
    65    2.07500    0.00000    0.00000    0.09867    0.00000  90.00000   0.00350    64   65   66      7
    66    2.07500    0.09867    0.00000    0.09867    0.00000  90.00000   0.00350    65   66   67      7
    67    2.07500    0.19733    0.00000    0.09867    0.00000  90.00000   0.00350    66   67   68      7
    68    2.07500    0.29600    0.00000    0.09867    0.00000  90.00000   0.00350    67   68   69      7
    69    2.07500    0.39467    0.00000    0.09867    0.00000  90.00000   0.00350    68   69    0      7
    70    0.10000    0.00000   -0.47460    0.06780   90.00000 -90.00000   0.00350     0   70   71     51
    71    0.10000    0.00000   -0.40680    0.06780   90.00000 -90.00000   0.00350    70   71   72     51
    72    0.10000    0.00000   -0.33900    0.06780   90.00000 -90.00000   0.00350    71   72   73     51
    73    0.10000    0.00000   -0.27120    0.06780   90.00000 -90.00000   0.00350    72   73   74     51
    74    0.10000    0.00000   -0.20340    0.06780   90.00000 -90.00000   0.00350    73   74   75     51
    75    0.10000    0.00000   -0.13560    0.06780   90.00000 -90.00000   0.00350    74   75   76     51
    76    0.10000    0.00000   -0.06780    0.06780   90.00000 -90.00000   0.00350    75   76   77     51
    77    0.10000    0.00000    0.00000    0.06780   90.00000 -90.00000   0.00350    76   77   78     51
    78    0.10000    0.00000    0.06780    0.06780   90.00000 -90.00000   0.00350    77   78   79     51
    79    0.10000    0.00000    0.13560    0.06780   90.00000 -90.00000   0.00350    78   79   80     51
    80    0.10000    0.00000    0.20340    0.06780   90.00000 -90.00000   0.00350    79   80   81     51
    81    0.10000    0.00000    0.27120    0.06780   90.00000 -90.00000   0.00350    80   81   82     51
    82    0.10000    0.00000    0.33900    0.06780   90.00000 -90.00000   0.00350    81   82   83     51
    83    0.10000    0.00000    0.40680    0.06780   90.00000 -90.00000   0.00350    82   83   84     51
    84    0.10000    0.00000    0.47460    0.06780   90.00000 -90.00000   0.00350    83   84    0     51
    85    0.51500    0.00000   -0.41111    0.10278   90.00000 -90.00000   0.01270     0   85   86     52
    86    0.51500    0.00000   -0.30833    0.10278   90.00000 -90.00000   0.01270    85   86   87     52
    87    0.51500    0.00000   -0.20556    0.10278   90.00000 -90.00000   0.01270    86   87   88     52
    88    0.51500    0.00000   -0.10278    0.10278   90.00000 -90.00000   0.01270    87   88   89     52
    89    0.51500    0.00000    0.00000    0.10278   90.00000 -90.00000   0.01270    88   89   90     52
    90    0.51500    0.00000    0.10278    0.10278   90.00000 -90.00000   0.01270    89   90   91     52
    91    0.51500    0.00000    0.20556    0.10278   90.00000 -90.00000   0.01270    90   91   92     52
    92    0.51500    0.00000    0.30833    0.10278   90.00000 -90.00000   0.01270    91   92   93     52
    93    0.51500    0.00000    0.41111    0.10278   90.00000 -90.00000   0.01270    92   93    0     52
    94    0.93000    0.00000   -0.40067    0.10017   90.00000 -90.00000   0.00350     0   94   95     53
    95    0.93000    0.00000   -0.30050    0.10017   90.00000 -90.00000   0.00350    94   95   96     53
    96    0.93000    0.00000   -0.20033    0.10017   90.00000 -90.00000   0.00350    95   96   97     53
    97    0.93000    0.00000   -0.10017    0.10017   90.00000 -90.00000   0.00350    96   97   98     53
    98    0.93000    0.00000    0.00000    0.10017   90.00000 -90.00000   0.00350    97   98   99     53
    99    0.93000    0.00000    0.10017    0.10017   90.00000 -90.00000   0.00350    98   99  100     53
   100    0.93000    0.00000    0.20033    0.10017   90.00000 -90.00000   0.00350    99  100  101     53
   101    0.93000    0.00000    0.30050    0.10017   90.00000 -90.00000   0.00350   100  101  102     53
   102    0.93000    0.00000    0.40067    0.10017   90.00000 -90.00000   0.00350   101  102    0     53
   103    1.34500    0.00000   -0.39467    0.09867   90.00000 -90.00000   0.00350     0  103  104     54
   104    1.34500    0.00000   -0.29600    0.09867   90.00000 -90.00000   0.00350   103  104  105     54
   105    1.34500    0.00000   -0.19733    0.09867   90.00000 -90.00000   0.00350   104  105  106     54
   106    1.34500    0.00000   -0.09867    0.09867   90.00000 -90.00000   0.00350   105  106  107     54
   107    1.34500    0.00000    0.00000    0.09867   90.00000 -90.00000   0.00350   106  107  108     54
   108    1.34500    0.00000    0.09867    0.09867   90.00000 -90.00000   0.00350   107  108  109     54
   109    1.34500    0.00000    0.19733    0.09867   90.00000 -90.00000   0.00350   108  109  110     54
   110    1.34500    0.00000    0.29600    0.09867   90.00000 -90.00000   0.00350   109  110  111     54
   111    1.34500    0.00000    0.39467    0.09867   90.00000 -90.00000   0.00350   110  111    0     54
   112    1.76000    0.00000   -0.39467    0.09867   90.00000 -90.00000   0.00350     0  112  113     55
   113    1.76000    0.00000   -0.29600    0.09867   90.00000 -90.00000   0.00350   112  113  114     55
   114    1.76000    0.00000   -0.19733    0.09867   90.00000 -90.00000   0.00350   113  114  115     55
   115    1.76000    0.00000   -0.09867    0.09867   90.00000 -90.00000   0.00350   114  115  116     55
   116    1.76000    0.00000    0.00000    0.09867   90.00000 -90.00000   0.00350   115  116  117     55
   117    1.76000    0.00000    0.09867    0.09867   90.00000 -90.00000   0.00350   116  117  118     55
   118    1.76000    0.00000    0.19733    0.09867   90.00000 -90.00000   0.00350   117  118  119     55
   119    1.76000    0.00000    0.29600    0.09867   90.00000 -90.00000   0.00350   118  119  120     55
   120    1.76000    0.00000    0.39467    0.09867   90.00000 -90.00000   0.00350   119  120    0     55
   121    2.17500    0.00000   -0.39467    0.09867   90.00000 -90.00000   0.00350     0  121  122     56
   122    2.17500    0.00000   -0.29600    0.09867   90.00000 -90.00000   0.00350   121  122  123     56
   123    2.17500    0.00000   -0.19733    0.09867   90.00000 -90.00000   0.00350   122  123  124     56
   124    2.17500    0.00000   -0.09867    0.09867   90.00000 -90.00000   0.00350   123  124  125     56
   125    2.17500    0.00000    0.00000    0.09867   90.00000 -90.00000   0.00350   124  125  126     56
   126    2.17500    0.00000    0.09867    0.09867   90.00000 -90.00000   0.00350   125  126  127     56
   127    2.17500    0.00000    0.19733    0.09867   90.00000 -90.00000   0.00350   126  127  128     56
   128    2.17500    0.00000    0.29600    0.09867   90.00000 -90.00000   0.00350   127  128  129     56
   129    2.17500    0.00000    0.39467    0.09867   90.00000 -90.00000   0.00350   128  129    0     56
   130    2.59000    0.00000   -0.39467    0.09867   90.00000 -90.00000   0.00350     0  130  131     57
   131    2.59000    0.00000   -0.29600    0.09867   90.00000 -90.00000   0.00350   130  131  132     57
   132    2.59000    0.00000   -0.19733    0.09867   90.00000 -90.00000   0.00350   131  132  133     57
   133    2.59000    0.00000   -0.09867    0.09867   90.00000 -90.00000   0.00350   132  133  134     57
   134    2.59000    0.00000    0.00000    0.09867   90.00000 -90.00000   0.00350   133  134  135     57
   135    2.59000    0.00000    0.09867    0.09867   90.00000 -90.00000   0.00350   134  135  136     57
   136    2.59000    0.00000    0.19733    0.09867   90.00000 -90.00000   0.00350   135  136  137     57
   137    2.59000    0.00000    0.29600    0.09867   90.00000 -90.00000   0.00350   136  137  138     57
   138    2.59000    0.00000    0.39467    0.09867   90.00000 -90.00000   0.00350   137  138    0     57






  LD 4 2 5 5 0 -15.4
  LD 0 5 5 5 0 -15.4
 ***** DATA CARD NO.   1 EX     0     2     5     0  1.00000E+00  0.00000E+00  0.00000E+00  0.00000E+00  0.00000E+00  0.00000E+00
 ***** DATA CARD NO.   2 EX     0    52     5     0  1.00000E+00  0.00000E+00  0.00000E+00  0.00000E+00  0.00000E+00  0.00000E+00
 ***** DATA CARD NO.   3 FR     0    10     0     0  1.44000E+02  5.00000E-01  0.00000E+00  0.00000E+00  0.00000E+00  0.00000E+00
 ***** DATA CARD NO.   4 RP     0     1   181  1000  9.00000E+01  0.00000E+00  1.00000E+00  1.00000E+00  0.00000E+00  0.00000E+00




                                 - - - - - - FREQUENCY - - - - - -

                                    FREQUENCY= 1.4400E+02 MHZ
                                    WAVELENGTH= 2.0819E+00 METERS




                    APPROXIMATE INTEGRATION EMPLOYED FOR SEGMENTS MORE THAN   1.000 WAVELENGTHS APART



                               - - - STRUCTURE IMPEDANCE LOADING - - -

                                   THIS STRUCTURE IS NOT LOADED



                                  - - - ANTENNA ENVIRONMENT - - -

                                            FREE SPACE



                                - - - MATRIX TIMING - - -

                        FILL=    0.120 SEC.,  FACTOR=    0.020 SEC.



                                          - - - ANTENNA INPUT PARAMETERS - - -

   TAG   SEG.    VOLTAGE (VOLTS)         CURRENT (AMPS)         IMPEDANCE (OHMS)        ADMITTANCE (MHOS)      POWER
   NO.   NO.    REAL        IMAG.       REAL        IMAG.       REAL        IMAG.       REAL        IMAG.     (WATTS)
     2    20 1.00000E+00 0.00000E+00 2.83899E-02 4.09968E-03 3.45043E+01-4.98263E+00 2.83899E-02 4.09968E-03 1.41949E-02
    52    89 1.00000E+00 0.00000E+00 2.83899E-02 4.09968E-03 3.45043E+01-4.98263E+00 2.83899E-02 4.09968E-03 1.41949E-02



                             - - - CURRENTS AND LOCATION - - -

                                 DISTANCES IN WAVELENGTHS


  SEG.  TAG    COORD. OF SEG. CENTER     SEG.            - - - CURRENT (AMPS) - - -
  NO.   NO.     X        Y        Z      LENGTH     REAL        IMAG.       MAG.        PHASE
     1    1  -0.1993  -0.2280   0.0000  0.03257  -1.3202E-03  1.0182E-03  1.6673E-03  142.358
     2    1  -0.1993  -0.1954   0.0000  0.03257  -3.2965E-03  2.5154E-03  4.1466E-03  142.655
     3    1  -0.1993  -0.1628   0.0000  0.03257  -4.9984E-03  3.7765E-03  6.2647E-03  142.928
     4    1  -0.1993  -0.1303   0.0000  0.03257  -6.4777E-03  4.8530E-03  8.0940E-03  143.160
     5    1  -0.1993  -0.0977   0.0000  0.03257  -7.6918E-03  5.7236E-03  9.5876E-03  143.346
     6    1  -0.1993  -0.0651   0.0000  0.03257  -8.5959E-03  6.3648E-03  1.0696E-02  143.482
     7    1  -0.1993  -0.0326   0.0000  0.03257  -9.1539E-03  6.7575E-03  1.1378E-02  143.565
     8    1  -0.1993   0.0000   0.0000  0.03257  -9.3425E-03  6.8898E-03  1.1608E-02  143.593
     9    1  -0.1993   0.0326   0.0000  0.03257  -9.1539E-03  6.7575E-03  1.1378E-02  143.565
    10    1  -0.1993   0.0651   0.0000  0.03257  -8.5959E-03  6.3648E-03  1.0696E-02  143.482
    11    1  -0.1993   0.0977   0.0000  0.03257  -7.6918E-03  5.7236E-03  9.5876E-03  143.346
    12    1  -0.1993   0.1303   0.0000  0.03257  -6.4777E-03  4.8530E-03  8.0940E-03  143.160
    13    1  -0.1993   0.1628   0.0000  0.03257  -4.9984E-03  3.7765E-03  6.2647E-03  142.928
    14    1  -0.1993   0.1954   0.0000  0.03257  -3.2965E-03  2.5154E-03  4.1466E-03  142.655
    15    1  -0.1993   0.2280   0.0000  0.03257  -1.3202E-03  1.0182E-03  1.6673E-03  142.358
    16    2   0.0000  -0.1975   0.0000  0.04937   7.4896E-03  4.0304E-04  7.5004E-03    3.080
    17    2   0.0000  -0.1481   0.0000  0.04937   1.6500E-02  1.1452E-03  1.6540E-02    3.970
    18    2   0.0000  -0.0987   0.0000  0.04937   2.2949E-02  2.0150E-03  2.3038E-02    5.018
    19    2   0.0000  -0.0494   0.0000  0.04937   2.7005E-02  3.0469E-03  2.7176E-02    6.437
    20    2   0.0000   0.0000   0.0000  0.04937   2.8390E-02  4.0997E-03  2.8684E-02    8.217
    21    2   0.0000   0.0494   0.0000  0.04937   2.7005E-02  3.0469E-03  2.7176E-02    6.437
    22    2   0.0000   0.0987   0.0000  0.04937   2.2949E-02  2.0150E-03  2.3038E-02    5.018
    23    2   0.0000   0.1481   0.0000  0.04937   1.6500E-02  1.1452E-03  1.6540E-02    3.970
    24    2   0.0000   0.1975   0.0000  0.04937   7.4896E-03  4.0304E-04  7.5004E-03    3.080
    25    3   0.1993  -0.1924   0.0000  0.04811  -2.4173E-03 -3.3152E-03  4.1029E-03 -126.098
    26    3   0.1993  -0.1443   0.0000  0.04811  -5.9396E-03 -8.1262E-03  1.0066E-02 -126.164
    27    3   0.1993  -0.0962   0.0000  0.04811  -8.5212E-03 -1.1638E-02  1.4424E-02 -126.211
    28    3   0.1993  -0.0481   0.0000  0.04811  -1.0146E-02 -1.3843E-02  1.7163E-02 -126.238
    29    3   0.1993   0.0000   0.0000  0.04811  -1.0701E-02 -1.4596E-02  1.8099E-02 -126.246
    30    3   0.1993   0.0481   0.0000  0.04811  -1.0146E-02 -1.3843E-02  1.7163E-02 -126.238
    31    3   0.1993   0.0962   0.0000  0.04811  -8.5212E-03 -1.1638E-02  1.4424E-02 -126.211
    32    3   0.1993   0.1443   0.0000  0.04811  -5.9396E-03 -8.1262E-03  1.0066E-02 -126.164
    33    3   0.1993   0.1924   0.0000  0.04811  -2.4173E-03 -3.3152E-03  4.1029E-03 -126.098
    34    4   0.3987  -0.1896   0.0000  0.04739  -2.2297E-03  8.9523E-04  2.4027E-03  158.124
    35    4   0.3987  -0.1422   0.0000  0.04739  -5.4361E-03  2.1831E-03  5.8581E-03  158.119
    36    4   0.3987  -0.0948   0.0000  0.04739  -7.7567E-03  3.1160E-03  8.3592E-03  158.114
    37    4   0.3987  -0.0474   0.0000  0.04739  -9.2060E-03  3.6989E-03  9.9213E-03  158.110
    38    4   0.3987   0.0000   0.0000  0.04739  -9.6997E-03  3.8976E-03  1.0453E-02  158.109
    39    4   0.3987   0.0474   0.0000  0.04739  -9.2060E-03  3.6989E-03  9.9213E-03  158.110
    40    4   0.3987   0.0948   0.0000  0.04739  -7.7567E-03  3.1160E-03  8.3592E-03  158.114
    41    4   0.3987   0.1422   0.0000  0.04739  -5.4361E-03  2.1831E-03  5.8581E-03  158.119
    42    4   0.3987   0.1896   0.0000  0.04739  -2.2297E-03  8.9523E-04  2.4027E-03  158.124
    43    5   0.5980  -0.1896   0.0000  0.04739   1.5141E-03  2.7746E-03  3.1609E-03   61.379
    44    5   0.5980  -0.1422   0.0000  0.04739   3.6875E-03  6.7627E-03  7.7027E-03   61.398
    45    5   0.5980  -0.0948   0.0000  0.04739   5.2579E-03  9.6476E-03  1.0987E-02   61.410
    46    5   0.5980  -0.0474   0.0000  0.04739   6.2378E-03  1.1449E-02  1.3038E-02   61.416
    47    5   0.5980   0.0000   0.0000  0.04739   6.5715E-03  1.2062E-02  1.3736E-02   61.418
    48    5   0.5980   0.0474   0.0000  0.04739   6.2378E-03  1.1449E-02  1.3038E-02   61.416
    49    5   0.5980   0.0948   0.0000  0.04739   5.2579E-03  9.6476E-03  1.0987E-02   61.410
    50    5   0.5980   0.1422   0.0000  0.04739   3.6875E-03  6.7627E-03  7.7027E-03   61.398
    51    5   0.5980   0.1896   0.0000  0.04739   1.5141E-03  2.7746E-03  3.1609E-03   61.379
    52    6   0.7973  -0.1896   0.0000  0.04739   2.2854E-03 -2.6231E-04  2.3005E-03   -6.547
    53    6   0.7973  -0.1422   0.0000  0.04739   5.5659E-03 -6.3640E-04  5.6022E-03   -6.523
    54    6   0.7973  -0.0948   0.0000  0.04739   7.9358E-03 -9.0496E-04  7.9872E-03   -6.506
    55    6   0.7973  -0.0474   0.0000  0.04739   9.4142E-03 -1.0719E-03  9.4750E-03   -6.496
    56    6   0.7973   0.0000   0.0000  0.04739   9.9176E-03 -1.1287E-03  9.9816E-03   -6.492
    57    6   0.7973   0.0474   0.0000  0.04739   9.4142E-03 -1.0719E-03  9.4750E-03   -6.496
    58    6   0.7973   0.0948   0.0000  0.04739   7.9358E-03 -9.0496E-04  7.9872E-03   -6.506
    59    6   0.7973   0.1422   0.0000  0.04739   5.5659E-03 -6.3640E-04  5.6022E-03   -6.523
    60    6   0.7973   0.1896   0.0000  0.04739   2.2854E-03 -2.6231E-04  2.3005E-03   -6.547
    61    7   0.9967  -0.1896   0.0000  0.04739  -1.1761E-03 -2.8447E-03  3.0783E-03 -112.462
    62    7   0.9967  -0.1422   0.0000  0.04739  -2.8865E-03 -6.9315E-03  7.5085E-03 -112.609
    63    7   0.9967  -0.0948   0.0000  0.04739  -4.1401E-03 -9.8865E-03  1.0718E-02 -112.722
    64    7   0.9967  -0.0474   0.0000  0.04739  -4.9294E-03 -1.1731E-02  1.2724E-02 -112.793
    65    7   0.9967   0.0000   0.0000  0.04739  -5.1994E-03 -1.2359E-02  1.3408E-02 -112.816
    66    7   0.9967   0.0474   0.0000  0.04739  -4.9294E-03 -1.1731E-02  1.2724E-02 -112.793
    67    7   0.9967   0.0948   0.0000  0.04739  -4.1401E-03 -9.8865E-03  1.0718E-02 -112.722
    68    7   0.9967   0.1422   0.0000  0.04739  -2.8865E-03 -6.9315E-03  7.5085E-03 -112.609
    69    7   0.9967   0.1896   0.0000  0.04739  -1.1761E-03 -2.8447E-03  3.0783E-03 -112.462
    70   51   0.0480   0.0000  -0.2280  0.03257  -1.3202E-03  1.0182E-03  1.6673E-03  142.358
    71   51   0.0480   0.0000  -0.1954  0.03257  -3.2965E-03  2.5154E-03  4.1466E-03  142.655
    72   51   0.0480   0.0000  -0.1628  0.03257  -4.9984E-03  3.7765E-03  6.2647E-03  142.928
    73   51   0.0480   0.0000  -0.1303  0.03257  -6.4777E-03  4.8530E-03  8.0940E-03  143.160
    74   51   0.0480   0.0000  -0.0977  0.03257  -7.6918E-03  5.7236E-03  9.5876E-03  143.346
    75   51   0.0480   0.0000  -0.0651  0.03257  -8.5959E-03  6.3648E-03  1.0696E-02  143.482
    76   51   0.0480   0.0000  -0.0326  0.03257  -9.1539E-03  6.7575E-03  1.1378E-02  143.565
    77   51   0.0480   0.0000   0.0000  0.03257  -9.3425E-03  6.8898E-03  1.1608E-02  143.593
    78   51   0.0480   0.0000   0.0326  0.03257  -9.1539E-03  6.7575E-03  1.1378E-02  143.565
    79   51   0.0480   0.0000   0.0651  0.03257  -8.5959E-03  6.3648E-03  1.0696E-02  143.482
    80   51   0.0480   0.0000   0.0977  0.03257  -7.6918E-03  5.7236E-03  9.5876E-03  143.346
    81   51   0.0480   0.0000   0.1303  0.03257  -6.4777E-03  4.8530E-03  8.0940E-03  143.160
    82   51   0.0480   0.0000   0.1628  0.03257  -4.9984E-03  3.7765E-03  6.2647E-03  142.928
    83   51   0.0480   0.0000   0.1954  0.03257  -3.2965E-03  2.5154E-03  4.1466E-03  142.655
    84   51   0.0480   0.0000   0.2280  0.03257  -1.3202E-03  1.0182E-03  1.6673E-03  142.358
    85   52   0.2474   0.0000  -0.1975  0.04937   7.4896E-03  4.0304E-04  7.5004E-03    3.080
    86   52   0.2474   0.0000  -0.1481  0.04937   1.6500E-02  1.1452E-03  1.6540E-02    3.970
    87   52   0.2474   0.0000  -0.0987  0.04937   2.2949E-02  2.0150E-03  2.3038E-02    5.018
    88   52   0.2474   0.0000  -0.0494  0.04937   2.7005E-02  3.0469E-03  2.7176E-02    6.437
    89   52   0.2474   0.0000   0.0000  0.04937   2.8390E-02  4.0997E-03  2.8684E-02    8.217
    90   52   0.2474   0.0000   0.0494  0.04937   2.7005E-02  3.0469E-03  2.7176E-02    6.437
    91   52   0.2474   0.0000   0.0987  0.04937   2.2949E-02  2.0150E-03  2.3038E-02    5.018
    92   52   0.2474   0.0000   0.1481  0.04937   1.6500E-02  1.1452E-03  1.6540E-02    3.970
    93   52   0.2474   0.0000   0.1975  0.04937   7.4896E-03  4.0304E-04  7.5004E-03    3.080
    94   53   0.4467   0.0000  -0.1924  0.04811  -2.4173E-03 -3.3152E-03  4.1029E-03 -126.098
    95   53   0.4467   0.0000  -0.1443  0.04811  -5.9396E-03 -8.1262E-03  1.0066E-02 -126.164
    96   53   0.4467   0.0000  -0.0962  0.04811  -8.5212E-03 -1.1638E-02  1.4424E-02 -126.211
    97   53   0.4467   0.0000  -0.0481  0.04811  -1.0146E-02 -1.3843E-02  1.7163E-02 -126.238
    98   53   0.4467   0.0000   0.0000  0.04811  -1.0701E-02 -1.4596E-02  1.8099E-02 -126.246
    99   53   0.4467   0.0000   0.0481  0.04811  -1.0146E-02 -1.3843E-02  1.7163E-02 -126.238
   100   53   0.4467   0.0000   0.0962  0.04811  -8.5212E-03 -1.1638E-02  1.4424E-02 -126.211
   101   53   0.4467   0.0000   0.1443  0.04811  -5.9396E-03 -8.1262E-03  1.0066E-02 -126.164
   102   53   0.4467   0.0000   0.1924  0.04811  -2.4173E-03 -3.3152E-03  4.1029E-03 -126.098
   103   54   0.6460   0.0000  -0.1896  0.04739  -2.2297E-03  8.9523E-04  2.4027E-03  158.124
   104   54   0.6460   0.0000  -0.1422  0.04739  -5.4361E-03  2.1831E-03  5.8581E-03  158.119
   105   54   0.6460   0.0000  -0.0948  0.04739  -7.7567E-03  3.1160E-03  8.3592E-03  158.114
   106   54   0.6460   0.0000  -0.0474  0.04739  -9.2060E-03  3.6989E-03  9.9213E-03  158.110
   107   54   0.6460   0.0000   0.0000  0.04739  -9.6997E-03  3.8976E-03  1.0453E-02  158.109
   108   54   0.6460   0.0000   0.0474  0.04739  -9.2060E-03  3.6989E-03  9.9213E-03  158.110
   109   54   0.6460   0.0000   0.0948  0.04739  -7.7567E-03  3.1160E-03  8.3592E-03  158.114
   110   54   0.6460   0.0000   0.1422  0.04739  -5.4361E-03  2.1831E-03  5.8581E-03  158.119
   111   54   0.6460   0.0000   0.1896  0.04739  -2.2297E-03  8.9523E-04  2.4027E-03  158.124
   112   55   0.8454   0.0000  -0.1896  0.04739   1.5141E-03  2.7746E-03  3.1609E-03   61.379
   113   55   0.8454   0.0000  -0.1422  0.04739   3.6875E-03  6.7627E-03  7.7027E-03   61.398
   114   55   0.8454   0.0000  -0.0948  0.04739   5.2579E-03  9.6476E-03  1.0987E-02   61.410
   115   55   0.8454   0.0000  -0.0474  0.04739   6.2378E-03  1.1449E-02  1.3038E-02   61.416
   116   55   0.8454   0.0000   0.0000  0.04739   6.5715E-03  1.2062E-02  1.3736E-02   61.418
   117   55   0.8454   0.0000   0.0474  0.04739   6.2378E-03  1.1449E-02  1.3038E-02   61.416
   118   55   0.8454   0.0000   0.0948  0.04739   5.2579E-03  9.6476E-03  1.0987E-02   61.410
   119   55   0.8454   0.0000   0.1422  0.04739   3.6875E-03  6.7627E-03  7.7027E-03   61.398
   120   55   0.8454   0.0000   0.1896  0.04739   1.5141E-03  2.7746E-03  3.1609E-03   61.379
   121   56   1.0447   0.0000  -0.1896  0.04739   2.2854E-03 -2.6231E-04  2.3005E-03   -6.547
   122   56   1.0447   0.0000  -0.1422  0.04739   5.5659E-03 -6.3640E-04  5.6022E-03   -6.523
   123   56   1.0447   0.0000  -0.0948  0.04739   7.9358E-03 -9.0496E-04  7.9872E-03   -6.506
   124   56   1.0447   0.0000  -0.0474  0.04739   9.4142E-03 -1.0719E-03  9.4750E-03   -6.496
   125   56   1.0447   0.0000   0.0000  0.04739   9.9176E-03 -1.1287E-03  9.9816E-03   -6.492
   126   56   1.0447   0.0000   0.0474  0.04739   9.4142E-03 -1.0719E-03  9.4750E-03   -6.496
   127   56   1.0447   0.0000   0.0948  0.04739   7.9358E-03 -9.0496E-04  7.9872E-03   -6.506
   128   56   1.0447   0.0000   0.1422  0.04739   5.5659E-03 -6.3640E-04  5.6022E-03   -6.523
   129   56   1.0447   0.0000   0.1896  0.04739   2.2854E-03 -2.6231E-04  2.3005E-03   -6.547
   130   57   1.2440   0.0000  -0.1896  0.04739  -1.1761E-03 -2.8447E-03  3.0783E-03 -112.462
   131   57   1.2440   0.0000  -0.1422  0.04739  -2.8865E-03 -6.9315E-03  7.5085E-03 -112.609
   132   57   1.2440   0.0000  -0.0948  0.04739  -4.1401E-03 -9.8865E-03  1.0718E-02 -112.722
   133   57   1.2440   0.0000  -0.0474  0.04739  -4.9294E-03 -1.1731E-02  1.2724E-02 -112.793
   134   57   1.2440   0.0000   0.0000  0.04739  -5.1994E-03 -1.2359E-02  1.3408E-02 -112.816
   135   57   1.2440   0.0000   0.0474  0.04739  -4.9294E-03 -1.1731E-02  1.2724E-02 -112.793
   136   57   1.2440   0.0000   0.0948  0.04739  -4.1401E-03 -9.8865E-03  1.0718E-02 -112.722
   137   57   1.2440   0.0000   0.1422  0.04739  -2.8865E-03 -6.9315E-03  7.5085E-03 -112.609
   138   57   1.2440   0.0000   0.1896  0.04739  -1.1761E-03 -2.8447E-03  3.0783E-03 -112.462



                                        - - - POWER BUDGET - - -

                                           INPUT POWER   = 2.8390E-02 WATTS
                                           RADIATED POWER= 2.8390E-02 WATTS
                                           STRUCTURE LOSS= 0.0000E+00 WATTS
                                           NETWORK LOSS  = 0.0000E+00 WATTS
                                           EFFICIENCY    = 100.00 PERCENT



                                                - - - RADIATION PATTERNS - - -

  - - ANGLES - -           - POWER GAINS -       - - - POLARIZATION - - -    - - - E(THETA) - - -    - - - E(PHI) - - -
  THETA     PHI        VERT.   HOR.    TOTAL      AXIAL     TILT   SENSE     MAGNITUDE    PHASE      MAGNITUDE    PHASE 
 DEGREES  DEGREES       DB      DB      DB        RATIO     DEG.              VOLTS/M    DEGREES      VOLTS/M    DEGREES
   90.00     0.00     8.65     8.65   11.662    0.98358   -45.00  LEFT      3.53277E+00   136.74    3.53277E+00  -132.32
   90.00     1.00     8.65     8.65   11.658    0.98335   -44.64  LEFT      3.53137E+00   136.70    3.53062E+00  -132.34
   90.00     2.00     8.64     8.63   11.645    0.98265   -43.62  LEFT      3.52716E+00   136.60    3.52420E+00  -132.40
   90.00     3.00     8.62     8.60   11.623    0.98143   -42.11  LEFT      3.52014E+00   136.42    3.51350E+00  -132.51
   90.00     4.00     8.60     8.57   11.593    0.97967   -40.29  LEFT      3.51031E+00   136.18    3.49854E+00  -132.66
   90.00     5.00     8.57     8.52   11.553    0.97730   -38.39  LEFT      3.49766E+00   135.87    3.47934E+00  -132.85
   90.00     6.00     8.53     8.46   11.504    0.97431   -36.55  LEFT      3.48218E+00   135.48    3.45595E+00  -133.09
   90.00     7.00     8.48     8.39   11.447    0.97069   -34.88  LEFT      3.46385E+00   135.03    3.42839E+00  -133.37
   90.00     8.00     8.43     8.31   11.380    0.96644   -33.40  LEFT      3.44267E+00   134.51    3.39670E+00  -133.69
   90.00     9.00     8.37     8.22   11.304    0.96157   -32.13  LEFT      3.41862E+00   133.92    3.36095E+00  -134.06
   90.00    10.00     8.30     8.12   11.218    0.95609   -31.05  LEFT      3.39169E+00   133.26    3.32119E+00  -134.47
   90.00    11.00     8.22     8.00   11.123    0.95002   -30.13  LEFT      3.36186E+00   132.53    3.27748E+00  -134.92
   90.00    12.00     8.14     7.87   11.017    0.94338   -29.35  LEFT      3.32912E+00   131.73    3.22991E+00  -135.42
   90.00    13.00     8.04     7.73   10.902    0.93618   -28.69  LEFT      3.29345E+00   130.86    3.17855E+00  -135.95
   90.00    14.00     7.94     7.58   10.776    0.92845   -28.13  LEFT      3.25483E+00   129.93    3.12350E+00  -136.54
   90.00    15.00     7.83     7.42   10.639    0.92019   -27.64  LEFT      3.21327E+00   128.92    3.06486E+00  -137.16
   90.00    16.00     7.71     7.24   10.490    0.91144   -27.23  LEFT      3.16874E+00   127.85    3.00274E+00  -137.83
   90.00    17.00     7.58     7.05   10.331    0.90220   -26.86  LEFT      3.12124E+00   126.71    2.93726E+00  -138.54
   90.00    18.00     7.43     6.84   10.159    0.89250   -26.54  LEFT      3.07076E+00   125.50    2.86854E+00  -139.29
   90.00    19.00     7.28     6.62    9.975    0.88236   -26.26  LEFT      3.01730E+00   124.22    2.79672E+00  -140.09
   90.00    20.00     7.12     6.39    9.779    0.87178   -26.01  LEFT      2.96086E+00   122.87    2.72196E+00  -140.93
   90.00    21.00     6.94     6.14    9.568    0.86081   -25.78  LEFT      2.90146E+00   121.46    2.64440E+00  -141.82
   90.00    22.00     6.75     5.87    9.344    0.84944   -25.57  LEFT      2.83910E+00   119.98    2.56422E+00  -142.75
   90.00    23.00     6.55     5.58    9.105    0.83770   -25.38  LEFT      2.77381E+00   118.43    2.48158E+00  -143.72
   90.00    24.00     6.34     5.28    8.851    0.82562   -25.20  LEFT      2.70562E+00   116.81    2.39668E+00  -144.74
   90.00    25.00     6.10     4.96    8.580    0.81320   -25.04  LEFT      2.63455E+00   115.13    2.30971E+00  -145.80
   90.00    26.00     5.86     4.62    8.293    0.80048   -24.89  LEFT      2.56065E+00   113.38    2.22087E+00  -146.90
   90.00    27.00     5.59     4.26    7.987    0.78746   -24.74  LEFT      2.48397E+00   111.56    2.13037E+00  -148.05
   90.00    28.00     5.31     3.88    7.663    0.77418   -24.60  LEFT      2.40457E+00   109.67    2.03844E+00  -149.25
   90.00    29.00     5.01     3.47    7.318    0.76065   -24.46  LEFT      2.32253E+00   107.72    1.94530E+00  -150.48
   90.00    30.00     4.69     3.04    6.951    0.74689   -24.33  LEFT      2.23793E+00   105.70    1.85119E+00  -151.77
   90.00    31.00     4.34     2.58    6.561    0.73292   -24.20  LEFT      2.15086E+00   103.61    1.75635E+00  -153.10
   90.00    32.00     3.97     2.10    6.146    0.71876   -24.07  LEFT      2.06142E+00   101.46    1.66102E+00  -154.48
   90.00    33.00     3.58     1.58    5.704    0.70444   -23.95  LEFT      1.96974E+00    99.24    1.56546E+00  -155.90
   90.00    34.00     3.15     1.04    5.233    0.68997   -23.82  LEFT      1.87593E+00    96.95    1.46992E+00  -157.38
   90.00    35.00     2.70     0.45    4.730    0.67538   -23.69  LEFT      1.78015E+00    94.59    1.37466E+00  -158.91
   90.00    36.00     2.21    -0.17    4.192    0.66070   -23.56  LEFT      1.68255E+00    92.16    1.27995E+00  -160.48
   90.00    37.00     1.68    -0.83    3.615    0.64594   -23.44  LEFT      1.58328E+00    89.66    1.18603E+00  -162.12
   90.00    38.00     1.11    -1.54    2.996    0.63114   -23.30  LEFT      1.48255E+00    87.09    1.09318E+00  -163.81
   90.00    39.00     0.49    -2.30    2.328    0.61633   -23.17  LEFT      1.38053E+00    84.44    1.00166E+00  -165.56
   90.00    40.00    -0.18    -3.11    1.605    0.60155   -23.04  LEFT      1.27743E+00    81.71    9.11704E-01  -167.38
   90.00    41.00    -0.92    -4.00    0.819    0.58683   -22.90  LEFT      1.17347E+00    78.90    8.23580E-01  -169.27
   90.00    42.00    -1.73    -4.95   -0.040    0.57224   -22.76  LEFT      1.06888E+00    76.00    7.37529E-01  -171.25
   90.00    43.00    -2.63    -6.00   -0.986    0.55785   -22.63  LEFT      9.63902E-01    73.00    6.53791E-01  -173.32
   90.00    44.00    -3.63    -7.15   -2.035    0.54375   -22.49  LEFT      8.58789E-01    69.88    5.72597E-01  -175.52
   90.00    45.00    -4.76    -8.43   -3.212    0.53008   -22.36  LEFT      7.53808E-01    66.62    4.94171E-01  -177.87
   90.00    46.00    -6.06    -9.87   -4.552    0.51707   -22.24  LEFT      6.49239E-01    63.19    4.18732E-01   179.59
   90.00    47.00    -7.58   -11.52   -6.104    0.50508   -22.14  LEFT      5.45379E-01    59.50    3.46493E-01   176.75
   90.00    48.00    -9.39   -13.44   -7.949    0.49474   -22.09  LEFT      4.42555E-01    55.45    2.77677E-01   173.46
   90.00    49.00   -11.65   -15.76  -10.227    0.48739   -22.16  LEFT      3.41153E-01    50.74    2.12536E-01   169.39
   90.00    50.00   -14.64   -18.71  -13.206    0.48607   -22.54  LEFT      2.41723E-01    44.67    1.51445E-01   163.75
   90.00    51.00   -19.05   -22.73  -17.503    0.49859   -24.17  LEFT      1.45507E-01    34.71    9.52594E-02   154.09
   90.00    52.00   -26.76   -28.71  -24.621    0.49633   -34.30  LEFT      5.98781E-02     3.66    4.78411E-02   128.91
   90.00    53.00   -25.83   -31.10  -24.704    0.21943   -26.70  LEFT      6.66439E-02   -95.88    3.63481E-02    54.25
   90.00    54.00   -18.82   -25.34  -17.948    0.28156   -20.91  LEFT      1.49426E-01  -121.99    7.05196E-02    15.49
   90.00    55.00   -14.85   -21.47  -13.999    0.29829   -19.92  LEFT      2.35936E-01  -131.44    1.10093E-01     2.93
   90.00    56.00   -12.19   -18.94  -11.360    0.29827   -19.46  LEFT      3.20515E-01  -137.59    1.47403E-01    -3.78
   90.00    57.00   -10.22   -17.14   -9.420    0.29186   -19.12  LEFT      4.02086E-01  -142.60    1.81267E-01    -8.48
   90.00    58.00    -8.68   -15.81   -7.913    0.28248   -18.79  LEFT      4.80160E-01  -147.09    2.11381E-01   -12.28
   90.00    59.00    -7.43   -14.79   -6.701    0.27154   -18.47  LEFT      5.54404E-01  -151.33    2.37664E-01   -15.62
   90.00    60.00    -6.40   -14.01   -5.704    0.25971   -18.14  LEFT      6.24548E-01  -155.42    2.60123E-01   -18.69
   90.00    61.00    -5.53   -13.40   -4.872    0.24739   -17.79  LEFT      6.90359E-01  -159.43    2.78816E-01   -21.60
   90.00    62.00    -4.79   -12.95   -4.172    0.23478   -17.43  LEFT      7.51631E-01  -163.40    2.93833E-01   -24.41
   90.00    63.00    -4.16   -12.62   -3.581    0.22205   -17.05  LEFT      8.08183E-01  -167.35    3.05288E-01   -27.15
   90.00    64.00    -3.62   -12.39   -3.080    0.20928   -16.66  LEFT      8.59856E-01  -171.30    3.13321E-01   -29.86
   90.00    65.00    -3.16   -12.26   -2.658    0.19657   -16.24  LEFT      9.06519E-01  -175.25    3.18088E-01   -32.53
   90.00    66.00    -2.77   -12.21   -2.305    0.18397   -15.81  LEFT      9.48062E-01  -179.21    3.19766E-01   -35.20
   90.00    67.00    -2.45   -12.25   -2.014    0.17152   -15.37  LEFT      9.84401E-01   176.81    3.18543E-01   -37.85
   90.00    68.00    -2.18   -12.35   -1.779    0.15926   -14.90  LEFT      1.01548E+00   172.82    3.14624E-01   -40.51
   90.00    69.00    -1.96   -12.53   -1.594    0.14724   -14.41  LEFT      1.04127E+00   168.81    3.08224E-01   -43.17
   90.00    70.00    -1.79   -12.78   -1.457    0.13549   -13.91  LEFT      1.06175E+00   164.77    2.99567E-01   -45.83
   90.00    71.00    -1.67   -13.10   -1.364    0.12404   -13.39  LEFT      1.07697E+00   160.72    2.88886E-01   -48.50
   90.00    72.00    -1.59   -13.48   -1.314    0.11291   -12.84  LEFT      1.08696E+00   156.65    2.76418E-01   -51.18
   90.00    73.00    -1.55   -13.93   -1.303    0.10215   -12.28  LEFT      1.09181E+00   152.55    2.62405E-01   -53.87
   90.00    74.00    -1.55   -14.45   -1.332    0.09177   -11.69  LEFT      1.09161E+00   148.43    2.47089E-01   -56.57
   90.00    75.00    -1.59   -15.05   -1.398    0.08180   -11.09  LEFT      1.08650E+00   144.30    2.30714E-01   -59.27
   90.00    76.00    -1.67   -15.72   -1.501    0.07228   -10.46  LEFT      1.07663E+00   140.15    2.13517E-01   -61.99
   90.00    77.00    -1.79   -16.48   -1.641    0.06323    -9.82  LEFT      1.06218E+00   135.97    1.95736E-01   -64.72
   90.00    78.00    -1.94   -17.32   -1.817    0.05468    -9.16  LEFT      1.04335E+00   131.79    1.77597E-01   -67.45
   90.00    79.00    -2.14   -18.26   -2.030    0.04666    -8.48  LEFT      1.02036E+00   127.59    1.59324E-01   -70.19
   90.00    80.00    -2.37   -19.32   -2.280    0.03919    -7.78  LEFT      9.93462E-01   123.38    1.41125E-01   -72.94
   90.00    81.00    -2.64   -20.50   -2.568    0.03230    -7.06  LEFT      9.62906E-01   119.17    1.23201E-01   -75.69
   90.00    82.00    -2.95   -21.83   -2.894    0.02602    -6.32  LEFT      9.28971E-01   114.95    1.05739E-01   -78.43
   90.00    83.00    -3.30   -23.33   -3.260    0.02036    -5.57  LEFT      8.91948E-01   110.73    8.89104E-02   -81.17
   90.00    84.00    -3.70   -25.06   -3.668    0.01536    -4.81  LEFT      8.52137E-01   106.51    7.28739E-02   -83.91
   90.00    85.00    -4.14   -27.08   -4.120    0.01103    -4.03  LEFT      8.09851E-01   102.31    5.77705E-02   -86.63
   90.00    86.00    -4.63   -29.50   -4.618    0.00738    -3.24  LEFT      7.65407E-01    98.13    4.37251E-02   -89.32
   90.00    87.00    -5.17   -32.53   -5.166    0.00445    -2.44  LEFT      7.19130E-01    93.97    3.08449E-02   -91.99
   90.00    88.00    -5.77   -36.64   -5.768    0.00223    -1.63  LEFT      6.71347E-01    89.86    1.92193E-02   -94.62
   90.00    89.00    -6.43   -43.30   -6.428    0.00075    -0.82  LEFT      6.22388E-01    85.81    8.91993E-03   -97.18
   90.00    90.00    -7.15  -999.99   -7.153    0.00000     0.00  LINEAR    5.72581E-01    81.85    2.40267E-12    80.33
   90.00    91.00    -7.95   -44.80   -7.952    0.00001     0.82  RIGHT     5.22257E-01    77.99    7.50532E-03    77.95
   90.00    92.00    -8.84   -39.65   -8.832    0.00072     1.65  LEFT      4.71747E-01    74.29    1.35791E-02    75.71
   90.00    93.00    -9.82   -37.10   -9.808    0.00217     2.47  LEFT      4.21384E-01    70.80    1.82227E-02    73.68
   90.00    94.00   -10.91   -35.68  -10.896    0.00434     3.30  LEFT      3.71513E-01    67.62    2.14566E-02    71.94
   90.00    95.00   -12.14   -34.95  -12.117    0.00718     4.12  LEFT      3.22502E-01    64.88    2.33216E-02    70.61
   90.00    96.00   -13.53   -34.75  -13.498    0.01067     4.93  LEFT      2.74769E-01    62.80    2.38827E-02    69.91
   90.00    97.00   -15.12   -34.99  -15.075    0.01472     5.74  LEFT      2.28846E-01    61.76    2.32378E-02    70.18
   90.00    98.00   -16.94   -35.65  -16.885    0.01920     6.53  LEFT      1.85497E-01    62.40    2.15383E-02    72.05
   90.00    99.00   -19.02   -36.72  -18.948    0.02391     7.30  LEFT      1.46029E-01    65.94    1.90410E-02    76.68
   90.00   100.00   -21.25   -38.10  -21.161    0.02867     8.02  LEFT      1.12980E-01    74.52    1.62416E-02    86.26
   90.00   101.00   -23.10   -39.29  -23.001    0.03426     8.61  LEFT      9.12652E-02    90.70    1.41651E-02   103.75
   90.00   102.00   -23.51   -39.10  -23.391    0.04325     9.11  LEFT      8.71051E-02   112.38    1.44694E-02   127.87
   90.00   103.00   -22.27   -37.16  -22.134    0.05503     9.73  LEFT      1.00435E-01   130.26    1.80911E-02   148.59
   90.00   104.00   -20.44   -34.59  -20.279    0.06657    10.45  LEFT      1.23982E-01   140.24    2.43122E-02   160.79
   90.00   105.00   -18.70   -32.16  -18.504    0.07759    11.17  LEFT      1.51619E-01   144.48    3.21736E-02   166.80
   90.00   106.00   -17.19   -30.03  -16.971    0.08858    11.87  LEFT      1.80283E-01   145.36    4.11127E-02   169.27
   90.00   107.00   -15.93   -28.19  -15.675    0.09982    12.54  LEFT      2.08567E-01   144.26    5.08201E-02   169.71
   90.00   108.00   -14.86   -26.59  -14.577    0.11143    13.17  LEFT      2.35800E-01   141.94    6.11025E-02   168.90
   90.00   109.00   -13.96   -25.19  -13.640    0.12346    13.78  LEFT      2.61653E-01   138.82    7.18215E-02   167.28
   90.00   110.00   -13.18   -23.94  -12.834    0.13591    14.37  LEFT      2.85967E-01   135.16    8.28687E-02   165.10
   90.00   111.00   -12.52   -22.83  -12.134    0.14876    14.93  LEFT      3.08678E-01   131.09    9.41544E-02   162.52
   90.00   112.00   -11.95   -21.84  -11.522    0.16200    15.46  LEFT      3.29780E-01   126.73    1.05603E-01   159.65
   90.00   113.00   -11.45   -20.94  -10.983    0.17562    15.97  LEFT      3.49305E-01   122.14    1.17148E-01   156.55
   90.00   114.00   -11.01   -20.12  -10.506    0.18958    16.46  LEFT      3.67310E-01   117.37    1.28736E-01   153.26
   90.00   115.00   -10.63   -19.37  -10.082    0.20386    16.92  LEFT      3.83868E-01   112.46    1.40319E-01   149.83
   90.00   116.00   -10.29   -18.68   -9.702    0.21843    17.36  LEFT      3.99065E-01   107.44    1.51858E-01   146.28
   90.00   117.00    -9.99   -18.05   -9.360    0.23326    17.78  LEFT      4.12990E-01   102.33    1.63322E-01   142.64
   90.00   118.00    -9.73   -17.47   -9.052    0.24834    18.18  LEFT      4.25740E-01    97.15    1.74685E-01   138.91
   90.00   119.00    -9.49   -16.92   -8.771    0.26362    18.55  LEFT      4.37406E-01    91.92    1.85928E-01   135.12
   90.00   120.00    -9.28   -16.42   -8.515    0.27908    18.90  LEFT      4.48081E-01    86.65    1.97034E-01   131.29
   90.00   121.00    -9.10   -15.95   -8.281    0.29469    19.23  LEFT      4.57851E-01    81.35    2.07993E-01   127.41
   90.00   122.00    -8.93   -15.51   -8.065    0.31044    19.54  LEFT      4.66795E-01    76.05    2.18794E-01   123.51
   90.00   123.00    -8.78   -15.10   -7.866    0.32629    19.83  LEFT      4.74985E-01    70.75    2.29430E-01   119.59
   90.00   124.00    -8.64   -14.71   -7.681    0.34221    20.10  LEFT      4.82483E-01    65.45    2.39894E-01   115.67
   90.00   125.00    -8.52   -14.35   -7.509    0.35820    20.36  LEFT      4.89343E-01    60.19    2.50178E-01   111.75
   90.00   126.00    -8.41   -14.00   -7.350    0.37422    20.60  LEFT      4.95607E-01    54.95    2.60275E-01   107.84
   90.00   127.00    -8.31   -13.68   -7.201    0.39027    20.82  LEFT      5.01308E-01    49.76    2.70173E-01   103.95
   90.00   128.00    -8.22   -13.37   -7.062    0.40631    21.02  LEFT      5.06471E-01    44.62    2.79862E-01   100.09
   90.00   129.00    -8.14   -13.08   -6.933    0.42235    21.21  LEFT      5.11112E-01    39.54    2.89326E-01    96.27
   90.00   130.00    -8.07   -12.81   -6.813    0.43837    21.39  LEFT      5.15237E-01    34.53    2.98548E-01    92.48
   90.00   131.00    -8.01   -12.55   -6.702    0.45435    21.56  LEFT      5.18850E-01    29.58    3.07508E-01    88.75
   90.00   132.00    -7.96   -12.31   -6.600    0.47030    21.72  LEFT      5.21946E-01    24.72    3.16185E-01    85.07
   90.00   133.00    -7.91   -12.08   -6.507    0.48619    21.87  LEFT      5.24519E-01    19.94    3.24553E-01    81.44
   90.00   134.00    -7.88   -11.87   -6.423    0.50203    22.01  LEFT      5.26557E-01    15.24    3.32586E-01    77.88
   90.00   135.00    -7.86   -11.67   -6.348    0.51780    22.14  LEFT      5.28050E-01    10.64    3.40256E-01    74.38
   90.00   136.00    -7.84   -11.49   -6.283    0.53351    22.26  LEFT      5.28985E-01     6.12    3.47535E-01    70.95
   90.00   137.00    -7.84   -11.32   -6.227    0.54915    22.38  LEFT      5.29352E-01     1.71    3.54395E-01    67.58
   90.00   138.00    -7.84   -11.16   -6.180    0.56470    22.50  LEFT      5.29141E-01    -2.62    3.60809E-01    64.29
   90.00   139.00    -7.85   -11.02   -6.144    0.58017    22.60  LEFT      5.28346E-01    -6.84    3.66748E-01    61.07
   90.00   140.00    -7.87   -10.89   -6.117    0.59554    22.71  LEFT      5.26963E-01   -10.98    3.72188E-01    57.92
   90.00   141.00    -7.91   -10.78   -6.100    0.61082    22.81  LEFT      5.24991E-01   -15.01    3.77107E-01    54.85
   90.00   142.00    -7.95   -10.68   -6.094    0.62599    22.91  LEFT      5.22435E-01   -18.95    3.81485E-01    51.85
   90.00   143.00    -8.00   -10.59   -6.097    0.64105    23.01  LEFT      5.19304E-01   -22.79    3.85305E-01    48.92
   90.00   144.00    -8.06   -10.52   -6.111    0.65598    23.11  LEFT      5.15609E-01   -26.53    3.88555E-01    46.06
   90.00   145.00    -8.14   -10.46   -6.134    0.67077    23.21  LEFT      5.11367E-01   -30.18    3.91227E-01    43.28
   90.00   146.00    -8.22   -10.42   -6.168    0.68542    23.30  LEFT      5.06600E-01   -33.74    3.93317E-01    40.56
   90.00   147.00    -8.31   -10.38   -6.212    0.69991    23.40  LEFT      5.01333E-01   -37.21    3.94824E-01    37.91
   90.00   148.00    -8.41   -10.36   -6.265    0.71424    23.50  LEFT      4.95596E-01   -40.58    3.95755E-01    35.34
   90.00   149.00    -8.52   -10.35   -6.328    0.72838    23.60  LEFT      4.89421E-01   -43.87    3.96118E-01    32.83
   90.00   150.00    -8.63   -10.36   -6.401    0.74233    23.70  LEFT      4.82844E-01   -47.07    3.95928E-01    30.38
   90.00   151.00    -8.76   -10.37   -6.482    0.75607    23.81  LEFT      4.75904E-01   -50.18    3.95204E-01    28.00
   90.00   152.00    -8.89   -10.40   -6.572    0.76958    23.93  LEFT      4.68644E-01   -53.20    3.93969E-01    25.69
   90.00   153.00    -9.03   -10.44   -6.670    0.78285    24.04  LEFT      4.61107E-01   -56.14    3.92250E-01    23.43
   90.00   154.00    -9.18   -10.49   -6.775    0.79587    24.17  LEFT      4.53338E-01   -59.00    3.90077E-01    21.24
   90.00   155.00    -9.34   -10.55   -6.888    0.80862    24.31  LEFT      4.45383E-01   -61.77    3.87487E-01    19.11
   90.00   156.00    -9.49   -10.61   -7.007    0.82107    24.46  LEFT      4.37291E-01   -64.45    3.84515E-01    17.04
   90.00   157.00    -9.66   -10.69   -7.132    0.83322    24.62  LEFT      4.29110E-01   -67.06    3.81202E-01    15.03
   90.00   158.00    -9.83   -10.77   -7.262    0.84505    24.79  LEFT      4.20888E-01   -69.58    3.77591E-01    13.08
   90.00   159.00   -10.00   -10.86   -7.397    0.85653    24.99  LEFT      4.12671E-01   -72.02    3.73725E-01    11.19
   90.00   160.00   -10.17   -10.95   -7.535    0.86765    25.20  LEFT      4.04509E-01   -74.37    3.69651E-01     9.36
   90.00   161.00   -10.35   -11.05   -7.676    0.87839    25.45  LEFT      3.96446E-01   -76.64    3.65414E-01     7.59
   90.00   162.00   -10.52   -11.16   -7.818    0.88873    25.72  LEFT      3.88527E-01   -78.83    3.61062E-01     5.89
   90.00   163.00   -10.70   -11.27   -7.961    0.89865    26.04  LEFT      3.80796E-01   -80.92    3.56641E-01     4.25
   90.00   164.00   -10.87   -11.37   -8.104    0.90812    26.39  LEFT      3.73293E-01   -82.93    3.52197E-01     2.68
   90.00   165.00   -11.04   -11.48   -8.246    0.91714    26.81  LEFT      3.66058E-01   -84.84    3.47777E-01     1.17
   90.00   166.00   -11.21   -11.59   -8.385    0.92567    27.29  LEFT      3.59128E-01   -86.66    3.43423E-01    -0.26
   90.00   167.00   -11.37   -11.70   -8.520    0.93369    27.85  LEFT      3.52535E-01   -88.38    3.39177E-01    -1.62
   90.00   168.00   -11.52   -11.81   -8.651    0.94119    28.51  LEFT      3.46313E-01   -89.99    3.35081E-01    -2.91
   90.00   169.00   -11.67   -11.91   -8.777    0.94813    29.29  LEFT      3.40490E-01   -91.50    3.31171E-01    -4.11
   90.00   170.00   -11.81   -12.01   -8.895    0.95450    30.21  LEFT      3.35092E-01   -92.90    3.27483E-01    -5.22
   90.00   171.00   -11.94   -12.10   -9.006    0.96027    31.31  LEFT      3.30143E-01   -94.19    3.24049E-01    -6.25
   90.00   172.00   -12.05   -12.18   -9.108    0.96541    32.62  LEFT      3.25663E-01   -95.35    3.20898E-01    -7.18
   90.00   173.00   -12.16   -12.26   -9.200    0.96992    34.14  LEFT      3.21671E-01   -96.39    3.18057E-01    -8.02
   90.00   174.00   -12.26   -12.33   -9.282    0.97376    35.89  LEFT      3.18181E-01   -97.31    3.15548E-01    -8.75
   90.00   175.00   -12.34   -12.39   -9.353    0.97693    37.83  LEFT      3.15207E-01   -98.09    3.13392E-01    -9.38
   90.00   176.00   -12.41   -12.44   -9.412    0.97945    39.87  LEFT      3.12760E-01   -98.73    3.11605E-01    -9.90
   90.00   177.00   -12.46   -12.48   -9.458    0.98132    41.83  LEFT      3.10848E-01   -99.23    3.10202E-01   -10.31
   90.00   178.00   -12.50   -12.51   -9.491    0.98260    43.49  LEFT      3.09478E-01   -99.59    3.09191E-01   -10.60
   90.00   179.00   -12.52   -12.52   -9.511    0.98334    44.61  LEFT      3.08654E-01   -99.81    3.08582E-01   -10.78
   90.00   180.00   -12.53   -12.53   -9.518    0.98358    45.00  LEFT      3.08379E-01   -99.89    3.08379E-01   -10.83




                                 - - - - - - FREQUENCY - - - - - -

                                    FREQUENCY= 1.4450E+02 MHZ
                                    WAVELENGTH= 2.0747E+00 METERS




                    APPROXIMATE INTEGRATION EMPLOYED FOR SEGMENTS MORE THAN   1.000 WAVELENGTHS APART



                               - - - STRUCTURE IMPEDANCE LOADING - - -

                                   THIS STRUCTURE IS NOT LOADED



                                  - - - ANTENNA ENVIRONMENT - - -

                                            FREE SPACE



                                - - - MATRIX TIMING - - -

                        FILL=    0.130 SEC.,  FACTOR=    0.010 SEC.



                                          - - - ANTENNA INPUT PARAMETERS - - -

   TAG   SEG.    VOLTAGE (VOLTS)         CURRENT (AMPS)         IMPEDANCE (OHMS)        ADMITTANCE (MHOS)      POWER
   NO.   NO.    REAL        IMAG.       REAL        IMAG.       REAL        IMAG.       REAL        IMAG.     (WATTS)
     2    20 1.00000E+00 0.00000E+00 3.02357E-02 2.34956E-03 3.28750E+01-2.55466E+00 3.02357E-02 2.34956E-03 1.51178E-02
    52    89 1.00000E+00 0.00000E+00 3.02357E-02 2.34956E-03 3.28750E+01-2.55466E+00 3.02357E-02 2.34956E-03 1.51178E-02



                             - - - CURRENTS AND LOCATION - - -

                                 DISTANCES IN WAVELENGTHS


  SEG.  TAG    COORD. OF SEG. CENTER     SEG.            - - - CURRENT (AMPS) - - -
  NO.   NO.     X        Y        Z      LENGTH     REAL        IMAG.       MAG.        PHASE
     1    1  -0.2000  -0.2288   0.0000  0.03268  -1.3095E-03  1.0948E-03  1.7069E-03  140.102
     2    1  -0.2000  -0.1961   0.0000  0.03268  -3.2733E-03  2.7079E-03  4.2482E-03  140.400
     3    1  -0.2000  -0.1634   0.0000  0.03268  -4.9678E-03  4.0700E-03  6.4222E-03  140.673
     4    1  -0.2000  -0.1307   0.0000  0.03268  -6.4430E-03  5.2350E-03  8.3016E-03  140.905
     5    1  -0.2000  -0.0980   0.0000  0.03268  -7.6549E-03  6.1786E-03  9.8374E-03  141.092
     6    1  -0.2000  -0.0654   0.0000  0.03268  -8.5583E-03  6.8744E-03  1.0977E-02  141.227
     7    1  -0.2000  -0.0327   0.0000  0.03268  -9.1161E-03  7.3010E-03  1.1679E-02  141.309
     8    1  -0.2000   0.0000   0.0000  0.03268  -9.3048E-03  7.4447E-03  1.1916E-02  141.337
     9    1  -0.2000   0.0327   0.0000  0.03268  -9.1161E-03  7.3010E-03  1.1679E-02  141.309
    10    1  -0.2000   0.0654   0.0000  0.03268  -8.5583E-03  6.8744E-03  1.0977E-02  141.227
    11    1  -0.2000   0.0980   0.0000  0.03268  -7.6549E-03  6.1786E-03  9.8374E-03  141.092
    12    1  -0.2000   0.1307   0.0000  0.03268  -6.4430E-03  5.2350E-03  8.3016E-03  140.905
    13    1  -0.2000   0.1634   0.0000  0.03268  -4.9678E-03  4.0700E-03  6.4222E-03  140.673
    14    1  -0.2000   0.1961   0.0000  0.03268  -3.2733E-03  2.7079E-03  4.2482E-03  140.400
    15    1  -0.2000   0.2288   0.0000  0.03268  -1.3095E-03  1.0948E-03  1.7069E-03  140.102
    16    2   0.0000  -0.1982   0.0000  0.04954   7.9631E-03 -6.2152E-05  7.9634E-03   -0.447
    17    2   0.0000  -0.1486   0.0000  0.04954   1.7556E-02  1.2210E-04  1.7557E-02    0.398
    18    2   0.0000  -0.0991   0.0000  0.04954   2.4431E-02  5.9451E-04  2.4438E-02    1.394
    19    2   0.0000  -0.0495   0.0000  0.04954   2.8757E-02  1.3788E-03  2.8790E-02    2.745
    20    2   0.0000   0.0000   0.0000  0.04954   3.0236E-02  2.3496E-03  3.0327E-02    4.443
    21    2   0.0000   0.0495   0.0000  0.04954   2.8757E-02  1.3788E-03  2.8790E-02    2.745
    22    2   0.0000   0.0991   0.0000  0.04954   2.4431E-02  5.9451E-04  2.4438E-02    1.394
    23    2   0.0000   0.1486   0.0000  0.04954   1.7556E-02  1.2210E-04  1.7557E-02    0.398
    24    2   0.0000   0.1982   0.0000  0.04954   7.9631E-03 -6.2152E-05  7.9634E-03   -0.447
    25    3   0.2000  -0.1931   0.0000  0.04828  -2.9858E-03 -3.2277E-03  4.3970E-03 -132.770
    26    3   0.2000  -0.1448   0.0000  0.04828  -7.3358E-03 -7.9156E-03  1.0792E-02 -132.823
    27    3   0.2000  -0.0966   0.0000  0.04828  -1.0523E-02 -1.1340E-02  1.5471E-02 -132.860
    28    3   0.2000  -0.0483   0.0000  0.04828  -1.2529E-02 -1.3492E-02  1.8412E-02 -132.880
    29    3   0.2000   0.0000   0.0000  0.04828  -1.3214E-02 -1.4227E-02  1.9417E-02 -132.887
    30    3   0.2000   0.0483   0.0000  0.04828  -1.2529E-02 -1.3492E-02  1.8412E-02 -132.880
    31    3   0.2000   0.0966   0.0000  0.04828  -1.0523E-02 -1.1340E-02  1.5471E-02 -132.860
    32    3   0.2000   0.1448   0.0000  0.04828  -7.3358E-03 -7.9156E-03  1.0792E-02 -132.823
    33    3   0.2000   0.1931   0.0000  0.04828  -2.9858E-03 -3.2277E-03  4.3970E-03 -132.770
    34    4   0.4001  -0.1902   0.0000  0.04756  -2.3233E-03  1.1651E-03  2.5990E-03  153.367
    35    4   0.4001  -0.1427   0.0000  0.04756  -5.6671E-03  2.8426E-03  6.3401E-03  153.362
    36    4   0.4001  -0.0951   0.0000  0.04756  -8.0892E-03  4.0586E-03  9.0503E-03  153.356
    37    4   0.4001  -0.0476   0.0000  0.04756  -9.6025E-03  4.8188E-03  1.0744E-02  153.351
    38    4   0.4001   0.0000   0.0000  0.04756  -1.0118E-02  5.0779E-03  1.1321E-02  153.350
    39    4   0.4001   0.0476   0.0000  0.04756  -9.6025E-03  4.8188E-03  1.0744E-02  153.351
    40    4   0.4001   0.0951   0.0000  0.04756  -8.0892E-03  4.0586E-03  9.0503E-03  153.356
    41    4   0.4001   0.1427   0.0000  0.04756  -5.6671E-03  2.8426E-03  6.3401E-03  153.362
    42    4   0.4001   0.1902   0.0000  0.04756  -2.3233E-03  1.1651E-03  2.5990E-03  153.367
    43    5   0.6001  -0.1902   0.0000  0.04756   2.0356E-03  2.7183E-03  3.3960E-03   53.173
    44    5   0.6001  -0.1427   0.0000  0.04756   4.9612E-03  6.6296E-03  8.2804E-03   53.191
    45    5   0.6001  -0.0951   0.0000  0.04756   7.0778E-03  9.4619E-03  1.1816E-02   53.202
    46    5   0.6001  -0.0476   0.0000  0.04756   8.3994E-03  1.1231E-02  1.4025E-02   53.208
    47    5   0.6001   0.0000   0.0000  0.04756   8.8497E-03  1.1834E-02  1.4777E-02   53.210
    48    5   0.6001   0.0476   0.0000  0.04756   8.3994E-03  1.1231E-02  1.4025E-02   53.208
    49    5   0.6001   0.0951   0.0000  0.04756   7.0778E-03  9.4619E-03  1.1816E-02   53.202
    50    5   0.6001   0.1427   0.0000  0.04756   4.9612E-03  6.6296E-03  8.2804E-03   53.191
    51    5   0.6001   0.1902   0.0000  0.04756   2.0356E-03  2.7183E-03  3.3960E-03   53.173
    52    6   0.8001  -0.1902   0.0000  0.04756   2.4317E-03 -5.9737E-04  2.5040E-03  -13.802
    53    6   0.8001  -0.1427   0.0000  0.04756   5.9260E-03 -1.4530E-03  6.1016E-03  -13.777
    54    6   0.8001  -0.0951   0.0000  0.04756   8.4532E-03 -2.0700E-03  8.7030E-03  -13.759
    55    6   0.8001  -0.0476   0.0000  0.04756   1.0031E-02 -2.4544E-03  1.0327E-02  -13.749
    56    6   0.8001   0.0000   0.0000  0.04756   1.0568E-02 -2.5852E-03  1.0880E-02  -13.746
    57    6   0.8001   0.0476   0.0000  0.04756   1.0031E-02 -2.4544E-03  1.0327E-02  -13.749
    58    6   0.8001   0.0951   0.0000  0.04756   8.4532E-03 -2.0700E-03  8.7030E-03  -13.759
    59    6   0.8001   0.1427   0.0000  0.04756   5.9260E-03 -1.4530E-03  6.1016E-03  -13.777
    60    6   0.8001   0.1902   0.0000  0.04756   2.4317E-03 -5.9737E-04  2.5040E-03  -13.802
    61    7   1.0001  -0.1902   0.0000  0.04756  -1.7608E-03 -2.8301E-03  3.3332E-03 -121.889
    62    7   1.0001  -0.1427   0.0000  0.04756  -4.3151E-03 -6.8961E-03  8.1349E-03 -122.035
    63    7   1.0001  -0.0951   0.0000  0.04756  -6.1817E-03 -9.8359E-03  1.1617E-02 -122.149
    64    7   1.0001  -0.0476   0.0000  0.04756  -7.3548E-03 -1.1671E-02  1.3795E-02 -122.219
    65    7   1.0001   0.0000   0.0000  0.04756  -7.7556E-03 -1.2296E-02  1.4537E-02 -122.242
    66    7   1.0001   0.0476   0.0000  0.04756  -7.3548E-03 -1.1671E-02  1.3795E-02 -122.219
    67    7   1.0001   0.0951   0.0000  0.04756  -6.1817E-03 -9.8359E-03  1.1617E-02 -122.149
    68    7   1.0001   0.1427   0.0000  0.04756  -4.3151E-03 -6.8961E-03  8.1349E-03 -122.035
    69    7   1.0001   0.1902   0.0000  0.04756  -1.7608E-03 -2.8301E-03  3.3332E-03 -121.889
    70   51   0.0482   0.0000  -0.2288  0.03268  -1.3095E-03  1.0948E-03  1.7069E-03  140.102
    71   51   0.0482   0.0000  -0.1961  0.03268  -3.2733E-03  2.7079E-03  4.2482E-03  140.400
    72   51   0.0482   0.0000  -0.1634  0.03268  -4.9678E-03  4.0700E-03  6.4222E-03  140.673
    73   51   0.0482   0.0000  -0.1307  0.03268  -6.4430E-03  5.2350E-03  8.3016E-03  140.905
    74   51   0.0482   0.0000  -0.0980  0.03268  -7.6549E-03  6.1786E-03  9.8374E-03  141.092
    75   51   0.0482   0.0000  -0.0654  0.03268  -8.5583E-03  6.8744E-03  1.0977E-02  141.227
    76   51   0.0482   0.0000  -0.0327  0.03268  -9.1161E-03  7.3010E-03  1.1679E-02  141.309
    77   51   0.0482   0.0000   0.0000  0.03268  -9.3048E-03  7.4447E-03  1.1916E-02  141.337
    78   51   0.0482   0.0000   0.0327  0.03268  -9.1161E-03  7.3010E-03  1.1679E-02  141.309
    79   51   0.0482   0.0000   0.0654  0.03268  -8.5583E-03  6.8744E-03  1.0977E-02  141.227
    80   51   0.0482   0.0000   0.0980  0.03268  -7.6549E-03  6.1786E-03  9.8374E-03  141.092
    81   51   0.0482   0.0000   0.1307  0.03268  -6.4430E-03  5.2350E-03  8.3016E-03  140.905
    82   51   0.0482   0.0000   0.1634  0.03268  -4.9678E-03  4.0700E-03  6.4222E-03  140.673
    83   51   0.0482   0.0000   0.1961  0.03268  -3.2733E-03  2.7079E-03  4.2482E-03  140.400
    84   51   0.0482   0.0000   0.2288  0.03268  -1.3095E-03  1.0948E-03  1.7069E-03  140.102
    85   52   0.2482   0.0000  -0.1982  0.04954   7.9631E-03 -6.2152E-05  7.9634E-03   -0.447
    86   52   0.2482   0.0000  -0.1486  0.04954   1.7556E-02  1.2210E-04  1.7557E-02    0.398
    87   52   0.2482   0.0000  -0.0991  0.04954   2.4431E-02  5.9451E-04  2.4438E-02    1.394
    88   52   0.2482   0.0000  -0.0495  0.04954   2.8757E-02  1.3788E-03  2.8790E-02    2.745
    89   52   0.2482   0.0000   0.0000  0.04954   3.0236E-02  2.3496E-03  3.0327E-02    4.443
    90   52   0.2482   0.0000   0.0495  0.04954   2.8757E-02  1.3788E-03  2.8790E-02    2.745
    91   52   0.2482   0.0000   0.0991  0.04954   2.4431E-02  5.9451E-04  2.4438E-02    1.394
    92   52   0.2482   0.0000   0.1486  0.04954   1.7556E-02  1.2210E-04  1.7557E-02    0.398
    93   52   0.2482   0.0000   0.1982  0.04954   7.9631E-03 -6.2152E-05  7.9634E-03   -0.447
    94   53   0.4482   0.0000  -0.1931  0.04828  -2.9858E-03 -3.2277E-03  4.3970E-03 -132.770
    95   53   0.4482   0.0000  -0.1448  0.04828  -7.3358E-03 -7.9156E-03  1.0792E-02 -132.823
    96   53   0.4482   0.0000  -0.0966  0.04828  -1.0523E-02 -1.1340E-02  1.5471E-02 -132.860
    97   53   0.4482   0.0000  -0.0483  0.04828  -1.2529E-02 -1.3492E-02  1.8412E-02 -132.880
    98   53   0.4482   0.0000   0.0000  0.04828  -1.3214E-02 -1.4227E-02  1.9417E-02 -132.887
    99   53   0.4482   0.0000   0.0483  0.04828  -1.2529E-02 -1.3492E-02  1.8412E-02 -132.880
   100   53   0.4482   0.0000   0.0966  0.04828  -1.0523E-02 -1.1340E-02  1.5471E-02 -132.860
   101   53   0.4482   0.0000   0.1448  0.04828  -7.3358E-03 -7.9156E-03  1.0792E-02 -132.823
   102   53   0.4482   0.0000   0.1931  0.04828  -2.9858E-03 -3.2277E-03  4.3970E-03 -132.770
   103   54   0.6483   0.0000  -0.1902  0.04756  -2.3233E-03  1.1651E-03  2.5990E-03  153.367
   104   54   0.6483   0.0000  -0.1427  0.04756  -5.6671E-03  2.8426E-03  6.3401E-03  153.362
   105   54   0.6483   0.0000  -0.0951  0.04756  -8.0892E-03  4.0586E-03  9.0503E-03  153.356
   106   54   0.6483   0.0000  -0.0476  0.04756  -9.6025E-03  4.8188E-03  1.0744E-02  153.351
   107   54   0.6483   0.0000   0.0000  0.04756  -1.0118E-02  5.0779E-03  1.1321E-02  153.350
   108   54   0.6483   0.0000   0.0476  0.04756  -9.6025E-03  4.8188E-03  1.0744E-02  153.351
   109   54   0.6483   0.0000   0.0951  0.04756  -8.0892E-03  4.0586E-03  9.0503E-03  153.356
   110   54   0.6483   0.0000   0.1427  0.04756  -5.6671E-03  2.8426E-03  6.3401E-03  153.362
   111   54   0.6483   0.0000   0.1902  0.04756  -2.3233E-03  1.1651E-03  2.5990E-03  153.367
   112   55   0.8483   0.0000  -0.1902  0.04756   2.0356E-03  2.7183E-03  3.3960E-03   53.173
   113   55   0.8483   0.0000  -0.1427  0.04756   4.9612E-03  6.6296E-03  8.2804E-03   53.191
   114   55   0.8483   0.0000  -0.0951  0.04756   7.0778E-03  9.4619E-03  1.1816E-02   53.202
   115   55   0.8483   0.0000  -0.0476  0.04756   8.3994E-03  1.1231E-02  1.4025E-02   53.208
   116   55   0.8483   0.0000   0.0000  0.04756   8.8497E-03  1.1834E-02  1.4777E-02   53.210
   117   55   0.8483   0.0000   0.0476  0.04756   8.3994E-03  1.1231E-02  1.4025E-02   53.208
   118   55   0.8483   0.0000   0.0951  0.04756   7.0778E-03  9.4619E-03  1.1816E-02   53.202
   119   55   0.8483   0.0000   0.1427  0.04756   4.9612E-03  6.6296E-03  8.2804E-03   53.191
   120   55   0.8483   0.0000   0.1902  0.04756   2.0356E-03  2.7183E-03  3.3960E-03   53.173
   121   56   1.0483   0.0000  -0.1902  0.04756   2.4317E-03 -5.9737E-04  2.5040E-03  -13.802
   122   56   1.0483   0.0000  -0.1427  0.04756   5.9260E-03 -1.4530E-03  6.1016E-03  -13.777
   123   56   1.0483   0.0000  -0.0951  0.04756   8.4532E-03 -2.0700E-03  8.7030E-03  -13.759
   124   56   1.0483   0.0000  -0.0476  0.04756   1.0031E-02 -2.4544E-03  1.0327E-02  -13.749
   125   56   1.0483   0.0000   0.0000  0.04756   1.0568E-02 -2.5852E-03  1.0880E-02  -13.746
   126   56   1.0483   0.0000   0.0476  0.04756   1.0031E-02 -2.4544E-03  1.0327E-02  -13.749
   127   56   1.0483   0.0000   0.0951  0.04756   8.4532E-03 -2.0700E-03  8.7030E-03  -13.759
   128   56   1.0483   0.0000   0.1427  0.04756   5.9260E-03 -1.4530E-03  6.1016E-03  -13.777
   129   56   1.0483   0.0000   0.1902  0.04756   2.4317E-03 -5.9737E-04  2.5040E-03  -13.802
   130   57   1.2483   0.0000  -0.1902  0.04756  -1.7608E-03 -2.8301E-03  3.3332E-03 -121.889
   131   57   1.2483   0.0000  -0.1427  0.04756  -4.3151E-03 -6.8961E-03  8.1349E-03 -122.035
   132   57   1.2483   0.0000  -0.0951  0.04756  -6.1817E-03 -9.8359E-03  1.1617E-02 -122.149
   133   57   1.2483   0.0000  -0.0476  0.04756  -7.3548E-03 -1.1671E-02  1.3795E-02 -122.219
   134   57   1.2483   0.0000   0.0000  0.04756  -7.7556E-03 -1.2296E-02  1.4537E-02 -122.242
   135   57   1.2483   0.0000   0.0476  0.04756  -7.3548E-03 -1.1671E-02  1.3795E-02 -122.219
   136   57   1.2483   0.0000   0.0951  0.04756  -6.1817E-03 -9.8359E-03  1.1617E-02 -122.149
   137   57   1.2483   0.0000   0.1427  0.04756  -4.3151E-03 -6.8961E-03  8.1349E-03 -122.035
   138   57   1.2483   0.0000   0.1902  0.04756  -1.7608E-03 -2.8301E-03  3.3332E-03 -121.889



                                        - - - POWER BUDGET - - -

                                           INPUT POWER   = 3.0236E-02 WATTS
                                           RADIATED POWER= 3.0236E-02 WATTS
                                           STRUCTURE LOSS= 0.0000E+00 WATTS
                                           NETWORK LOSS  = 0.0000E+00 WATTS
                                           EFFICIENCY    = 100.00 PERCENT



                                                - - - RADIATION PATTERNS - - -

  - - ANGLES - -           - POWER GAINS -       - - - POLARIZATION - - -    - - - E(THETA) - - -    - - - E(PHI) - - -
  THETA     PHI        VERT.   HOR.    TOTAL      AXIAL     TILT   SENSE     MAGNITUDE    PHASE      MAGNITUDE    PHASE 
 DEGREES  DEGREES       DB      DB      DB        RATIO     DEG.              VOLTS/M    DEGREES      VOLTS/M    DEGREES
   90.00     0.00     8.74     8.74   11.755    0.98890   -45.00  LEFT      3.68494E+00   130.27    3.68494E+00  -139.09
   90.00     1.00     8.74     8.74   11.751    0.98867   -44.47  LEFT      3.68343E+00   130.23    3.68265E+00  -139.11
   90.00     2.00     8.73     8.72   11.737    0.98795   -43.01  LEFT      3.67889E+00   130.13    3.67580E+00  -139.18
   90.00     3.00     8.71     8.70   11.715    0.98670   -40.94  LEFT      3.67132E+00   129.95    3.66439E+00  -139.29
   90.00     4.00     8.69     8.66   11.683    0.98486   -38.63  LEFT      3.66072E+00   129.70    3.64843E+00  -139.45
   90.00     5.00     8.66     8.61   11.643    0.98239   -36.40  LEFT      3.64708E+00   129.38    3.62797E+00  -139.65
   90.00     6.00     8.62     8.55   11.593    0.97928   -34.41  LEFT      3.63039E+00   128.99    3.60303E+00  -139.89
   90.00     7.00     8.57     8.48   11.534    0.97552   -32.72  LEFT      3.61064E+00   128.52    3.57365E+00  -140.18
   90.00     8.00     8.51     8.40   11.465    0.97113   -31.33  LEFT      3.58781E+00   127.99    3.53988E+00  -140.52
   90.00     9.00     8.45     8.30   11.387    0.96613   -30.19  LEFT      3.56191E+00   127.39    3.50178E+00  -140.90
   90.00    10.00     8.38     8.20   11.299    0.96053   -29.26  LEFT      3.53290E+00   126.71    3.45942E+00  -141.32
   90.00    11.00     8.30     8.08   11.201    0.95434   -28.50  LEFT      3.50079E+00   125.96    3.41287E+00  -141.79
   90.00    12.00     8.21     7.95   11.093    0.94759   -27.88  LEFT      3.46555E+00   125.14    3.36222E+00  -142.31
   90.00    13.00     8.12     7.81   10.974    0.94029   -27.36  LEFT      3.42718E+00   124.25    3.30756E+00  -142.87
   90.00    14.00     8.01     7.65   10.844    0.93246   -26.92  LEFT      3.38566E+00   123.29    3.24898E+00  -143.47
   90.00    15.00     7.89     7.48   10.703    0.92412   -26.56  LEFT      3.34098E+00   122.26    3.18661E+00  -144.12
   90.00    16.00     7.77     7.30   10.551    0.91528   -26.24  LEFT      3.29315E+00   121.16    3.12056E+00  -144.82
   90.00    17.00     7.63     7.11   10.387    0.90595   -25.97  LEFT      3.24214E+00   119.99    3.05096E+00  -145.56
   90.00    18.00     7.49     6.89   10.211    0.89617   -25.73  LEFT      3.18797E+00   118.74    2.97796E+00  -146.35
   90.00    19.00     7.33     6.67   10.022    0.88595   -25.51  LEFT      3.13063E+00   117.43    2.90170E+00  -147.18
   90.00    20.00     7.16     6.43    9.820    0.87530   -25.33  LEFT      3.07014E+00   116.05    2.82236E+00  -148.06
   90.00    21.00     6.98     6.17    9.604    0.86424   -25.15  LEFT      3.00651E+00   114.59    2.74009E+00  -148.98
   90.00    22.00     6.78     5.90    9.373    0.85280   -25.00  LEFT      2.93975E+00   113.06    2.65508E+00  -149.95
   90.00    23.00     6.57     5.61    9.127    0.84099   -24.85  LEFT      2.86991E+00   111.47    2.56752E+00  -150.97
   90.00    24.00     6.35     5.30    8.866    0.82884   -24.72  LEFT      2.79700E+00   109.80    2.47762E+00  -152.04
   90.00    25.00     6.11     4.97    8.587    0.81635   -24.59  LEFT      2.72108E+00   108.06    2.38558E+00  -153.15
   90.00    26.00     5.86     4.62    8.292    0.80356   -24.47  LEFT      2.64220E+00   106.25    2.29163E+00  -154.32
   90.00    27.00     5.58     4.25    7.977    0.79048   -24.36  LEFT      2.56041E+00   104.36    2.19600E+00  -155.53
   90.00    28.00     5.29     3.86    7.643    0.77714   -24.24  LEFT      2.47580E+00   102.41    2.09892E+00  -156.79
   90.00    29.00     4.98     3.44    7.287    0.76354   -24.14  LEFT      2.38845E+00   100.38    2.00065E+00  -158.10
   90.00    30.00     4.64     3.00    6.909    0.74972   -24.03  LEFT      2.29844E+00    98.28    1.90143E+00  -159.47
   90.00    31.00     4.29     2.53    6.507    0.73570   -23.92  LEFT      2.20589E+00    96.10    1.80152E+00  -160.89
   90.00    32.00     3.91     2.03    6.079    0.72149   -23.81  LEFT      2.11092E+00    93.85    1.70119E+00  -162.36
   90.00    33.00     3.50     1.50    5.623    0.70712   -23.71  LEFT      2.01366E+00    91.52    1.60072E+00  -163.89
   90.00    34.00     3.06     0.94    5.136    0.69261   -23.60  LEFT      1.91426E+00    89.11    1.50037E+00  -165.48
   90.00    35.00     2.58     0.34    4.616    0.67798   -23.49  LEFT      1.81287E+00    86.62    1.40043E+00  -167.13
   90.00    36.00     2.07    -0.30    4.059    0.66326   -23.38  LEFT      1.70966E+00    84.05    1.30116E+00  -168.85
   90.00    37.00     1.52    -0.98    3.461    0.64848   -23.27  LEFT      1.60484E+00    81.38    1.20286E+00  -170.65
   90.00    38.00     0.93    -1.71    2.818    0.63367   -23.16  LEFT      1.49859E+00    78.63    1.10579E+00  -172.52
   90.00    39.00     0.28    -2.50    2.123    0.61886   -23.04  LEFT      1.39113E+00    75.77    1.01024E+00  -174.48
   90.00    40.00    -0.42    -3.34    1.370    0.60408   -22.93  LEFT      1.28270E+00    72.79    9.16484E-01  -176.54
   90.00    41.00    -1.19    -4.26    0.550    0.58940   -22.81  LEFT      1.17354E+00    69.69    8.24787E-01  -178.72
   90.00    42.00    -2.05    -5.25   -0.349    0.57486   -22.70  LEFT      1.06391E+00    66.45    7.35419E-01   178.97
   90.00    43.00    -2.99    -6.34   -1.342    0.56054   -22.59  LEFT      9.54108E-01    63.03    6.48644E-01   176.48
   90.00    44.00    -4.05    -7.55   -2.447    0.54656   -22.49  LEFT      8.44427E-01    59.39    5.64723E-01   173.78
   90.00    45.00    -5.26    -8.89   -3.692    0.53307   -22.41  LEFT      7.35208E-01    55.46    4.83923E-01   170.78
   90.00    46.00    -6.64   -10.40   -5.116    0.52029   -22.36  LEFT      6.26837E-01    51.13    4.06523E-01   167.37
   90.00    47.00    -8.27   -12.14   -6.775    0.50860   -22.37  LEFT      5.19787E-01    46.19    3.32837E-01   163.34
   90.00    48.00   -10.23   -14.18   -8.758    0.49859   -22.50  LEFT      4.14714E-01    40.25    2.63275E-01   158.30
   90.00    49.00   -12.68   -16.63  -11.210    0.49110   -22.94  LEFT      3.12732E-01    32.42    1.98489E-01   151.43
   90.00    50.00   -15.88   -19.67  -14.363    0.48607   -24.16  LEFT      2.16389E-01    20.34    1.39854E-01   140.75
   90.00    51.00   -20.03   -23.37  -18.374    0.46699   -27.54  LEFT      1.34255E-01    -3.56    9.13024E-02   120.91
   90.00    52.00   -22.52   -26.25  -20.987    0.35665   -29.26  LEFT      1.00711E-01   -54.68    6.55897E-02    81.55
   90.00    53.00   -19.22   -24.74  -18.144    0.30492   -23.68  LEFT      1.47338E-01   -99.12    7.80050E-02    38.45
   90.00    54.00   -15.50   -21.65  -14.560    0.30998   -21.17  LEFT      2.25957E-01  -119.02    1.11293E-01    15.46
   90.00    55.00   -12.75   -19.16  -11.852    0.31005   -20.18  LEFT      3.10403E-01  -129.94    1.48318E-01     3.41
   90.00    56.00   -10.66   -17.29   -9.809    0.30446   -19.63  LEFT      3.94469E-01  -137.54    1.83894E-01    -4.23
   90.00    57.00    -9.03   -15.88   -8.213    0.29568   -19.21  LEFT      4.76154E-01  -143.64    2.16457E-01    -9.84
   90.00    58.00    -7.71   -14.78   -6.928    0.28510   -18.84  LEFT      5.54536E-01  -148.96    2.45442E-01   -14.39
   90.00    59.00    -6.61   -13.94   -5.872    0.27347   -18.49  LEFT      6.29069E-01  -153.83    2.70636E-01   -18.33
   90.00    60.00    -5.69   -13.28   -4.992    0.26122   -18.14  LEFT      6.99364E-01  -158.43    2.91979E-01   -21.89
   90.00    61.00    -4.91   -12.77   -4.251    0.24861   -17.78  LEFT      7.65121E-01  -162.86    3.09495E-01   -25.20
   90.00    62.00    -4.24   -12.39   -3.624    0.23580   -17.41  LEFT      8.26092E-01  -167.18    3.23259E-01   -28.35
   90.00    63.00    -3.67   -12.12   -3.094    0.22292   -17.03  LEFT      8.82073E-01  -171.43    3.33383E-01   -31.38
[...]
   90.00    19.00     7.00     6.34    9.693    0.91196   -17.34  LEFT      2.09255E+00    41.66    1.93996E+00   134.67
   90.00    20.00     6.76     6.04    9.425    0.90121   -18.10  LEFT      2.03657E+00    39.85    1.87279E+00   133.38
   90.00    21.00     6.51     5.71    9.138    0.89000   -18.73  LEFT      1.97810E+00    37.93    1.80359E+00   132.00
   90.00    22.00     6.24     5.36    8.832    0.87838   -19.25  LEFT      1.91724E+00    35.90    1.73258E+00   130.53
   90.00    23.00     5.95     4.99    8.505    0.86636   -19.69  LEFT      1.85408E+00    33.75    1.65997E+00   128.96
   90.00    24.00     5.64     4.59    8.156    0.85399   -20.06  LEFT      1.78873E+00    31.47    1.58602E+00   127.30
   90.00    25.00     5.30     4.17    7.784    0.84128   -20.38  LEFT      1.72132E+00    29.05    1.51095E+00   125.52
   90.00    26.00     4.95     3.72    7.387    0.82826   -20.66  LEFT      1.65200E+00    26.50    1.43504E+00   123.63
   90.00    27.00     4.56     3.25    6.965    0.81496   -20.90  LEFT      1.58091E+00    23.79    1.35854E+00   121.61
   90.00    28.00     4.15     2.74    6.516    0.80141   -21.11  LEFT      1.50825E+00    20.92    1.28173E+00   119.45
   90.00    29.00     3.72     2.20    6.037    0.78762   -21.30  LEFT      1.43421E+00    17.87    1.20490E+00   117.14
   90.00    30.00     3.25     1.63    5.527    0.77362   -21.47  LEFT      1.35902E+00    14.63    1.12836E+00   114.65
   90.00    31.00     2.75     1.03    4.984    0.75943   -21.62  LEFT      1.28295E+00    11.16    1.05241E+00   111.97
   90.00    32.00     2.21     0.39    4.406    0.74508   -21.77  LEFT      1.20628E+00     7.44    9.77390E-01   109.06
   90.00    33.00     1.64    -0.29    3.791    0.73057   -21.91  LEFT      1.12936E+00     3.45    9.03649E-01   105.90
   90.00    34.00     1.03    -1.02    3.137    0.71593   -22.05  LEFT      1.05258E+00    -0.88    8.31560E-01   102.45
   90.00    35.00     0.38    -1.78    2.442    0.70113   -22.19  LEFT      9.76425E-01    -5.59    7.61526E-01    98.64
   90.00    36.00    -0.32    -2.59    1.706    0.68617   -22.35  LEFT      9.01448E-01   -10.75    6.93992E-01    94.42
   90.00    37.00    -1.05    -3.44    0.929    0.67100   -22.52  LEFT      8.28335E-01   -16.46    6.29453E-01    89.71
   90.00    38.00    -1.82    -4.32    0.116    0.65551   -22.71  LEFT      7.57931E-01   -22.82    5.68472E-01    84.40
   90.00    39.00    -2.62    -5.23   -0.724    0.63956   -22.93  LEFT      6.91289E-01   -29.96    5.11699E-01    78.38
   90.00    40.00    -3.43    -6.16   -1.575    0.62289   -23.18  LEFT      6.29725E-01   -38.04    4.59885E-01    71.53
   90.00    41.00    -4.22    -7.08   -2.409    0.60515   -23.43  LEFT      5.74861E-01   -47.20    4.13889E-01    63.72
   90.00    42.00    -4.95    -7.94   -3.184    0.58595   -23.67  LEFT      5.28612E-01   -57.55    3.74652E-01    54.85
   90.00    43.00    -5.56    -8.71   -3.842    0.56506   -23.83  LEFT      4.93050E-01   -69.08    3.43099E-01    44.93
   90.00    44.00    -5.97    -9.31   -4.318    0.54263   -23.86  LEFT      4.70043E-01   -81.57    3.19954E-01    34.11
   90.00    45.00    -6.15    -9.71   -4.563    0.51945   -23.70  LEFT      4.60724E-01   -94.59    3.05477E-01    22.76
   90.00    46.00    -6.07    -9.89   -4.561    0.49666   -23.36  LEFT      4.65000E-01  -107.54    2.99242E-01    11.37
   90.00    47.00    -5.76    -9.87   -4.338    0.47522   -22.90  LEFT      4.81471E-01  -119.86    3.00116E-01     0.42
   90.00    48.00    -5.30    -9.69   -3.951    0.45550   -22.38  LEFT      5.07834E-01  -131.21    3.06486E-01    -9.72
   90.00    49.00    -4.74    -9.40   -3.466    0.43737   -21.87  LEFT      5.41484E-01  -141.48    3.16598E-01   -18.89
   90.00    50.00    -4.15    -9.07   -2.936    0.42044   -21.39  LEFT      5.79980E-01  -150.70    3.28834E-01   -27.08
   90.00    51.00    -3.55    -8.74   -2.400    0.40434   -20.95  LEFT      6.21257E-01  -159.02    3.41852E-01   -34.38
   90.00    52.00    -2.98    -8.42   -1.885    0.38877   -20.54  LEFT      6.63660E-01  -166.58    3.54610E-01   -40.92
   90.00    53.00    -2.44    -8.14   -1.404    0.37353   -20.17  LEFT      7.05890E-01  -173.53    3.66335E-01   -46.82
   90.00    54.00    -1.95    -7.90   -0.966    0.35851   -19.81  LEFT      7.46933E-01  -179.99    3.76473E-01   -52.21
   90.00    55.00    -1.51    -7.71   -0.574    0.34363   -19.47  LEFT      7.85994E-01   173.94    3.84641E-01   -57.18
   90.00    56.00    -1.11    -7.58   -0.229    0.32888   -19.13  LEFT      8.22441E-01   168.18    3.90587E-01   -61.80
   90.00    57.00    -0.77    -7.50    0.068    0.31422   -18.80  LEFT      8.55773E-01   162.66    3.94163E-01   -66.16
   90.00    58.00    -0.47    -7.48    0.319    0.29967   -18.46  LEFT      8.85584E-01   157.34    3.95297E-01   -70.29
   90.00    59.00    -0.22    -7.51    0.525    0.28524   -18.12  LEFT      9.11551E-01   152.17    3.93982E-01   -74.25
   90.00    60.00    -0.01    -7.59    0.687    0.27094   -17.77  LEFT      9.33417E-01   147.12    3.90259E-01   -78.05
   90.00    61.00     0.15    -7.72    0.806    0.25678   -17.41  LEFT      9.50982E-01   142.17    3.84211E-01   -81.74
   90.00    62.00     0.27    -7.91    0.883    0.24278   -17.04  LEFT      9.64094E-01   137.30    3.75955E-01   -85.34
   90.00    63.00     0.34    -8.15    0.919    0.22896   -16.66  LEFT      9.72648E-01   132.48    3.65634E-01   -88.86
   90.00    64.00     0.38    -8.45    0.914    0.21534   -16.26  LEFT      9.76580E-01   127.71    3.53414E-01   -92.31
   90.00    65.00     0.37    -8.80    0.869    0.20195   -15.85  LEFT      9.75866E-01   122.98    3.39479E-01   -95.72
   90.00    66.00     0.33    -9.20    0.785    0.18879   -15.43  LEFT      9.70516E-01   118.27    3.24026E-01   -99.09
   90.00    67.00     0.24    -9.66    0.659    0.17589   -14.98  LEFT      9.60578E-01   113.58    3.07265E-01  -102.43
   90.00    68.00     0.10   -10.18    0.493    0.16328   -14.52  LEFT      9.46132E-01   108.90    2.89412E-01  -105.75
   90.00    69.00    -0.07   -10.77    0.285    0.15097   -14.04  LEFT      9.27289E-01   104.22    2.70689E-01  -109.06
   90.00    70.00    -0.29   -11.41    0.034    0.13899   -13.54  LEFT      9.04192E-01    99.54    2.51319E-01  -112.36
   90.00    71.00    -0.55   -12.12   -0.262    0.12737   -13.03  LEFT      8.77012E-01    94.86    2.31525E-01  -115.66
   90.00    72.00    -0.87   -12.91   -0.604    0.11611   -12.49  LEFT      8.45946E-01    90.17    2.11527E-01  -118.96
   90.00    73.00    -1.23   -13.77   -0.996    0.10526   -11.94  LEFT      8.11216E-01    85.46    1.91538E-01  -122.28
   90.00    74.00    -1.65   -14.72   -1.441    0.09484   -11.36  LEFT      7.73070E-01    80.74    1.71766E-01  -125.61
   90.00    75.00    -2.13   -15.75   -1.943    0.08486   -10.77  LEFT      7.31774E-01    76.00    1.52408E-01  -128.97
   90.00    76.00    -2.67   -16.90   -2.507    0.07536   -10.16  LEFT      6.87614E-01    71.23    1.33649E-01  -132.35
   90.00    77.00    -3.28   -18.15   -3.140    0.06637    -9.53  LEFT      6.40892E-01    66.44    1.15661E-01  -135.78
   90.00    78.00    -3.97   -19.54   -3.850    0.05791    -8.88  LEFT      5.91923E-01    61.61    9.86038E-02  -139.25
   90.00    79.00    -4.75   -21.07   -4.650    0.05001    -8.21  LEFT      5.41035E-01    56.73    8.26181E-02  -142.80
   90.00    80.00    -5.64   -22.79   -5.553    0.04269    -7.53  LEFT      4.88565E-01    51.80    6.78296E-02  -146.43
   90.00    81.00    -6.65   -24.71   -6.580    0.03598    -6.82  LEFT      4.34855E-01    46.79    5.43459E-02  -150.19
   90.00    82.00    -7.81   -26.90   -7.760    0.02992    -6.11  LEFT      3.80250E-01    41.70    4.22562E-02  -154.11
   90.00    83.00    -9.17   -29.41   -9.133    0.02454    -5.38  LEFT      3.25101E-01    36.46    3.16313E-02  -158.28
   90.00    84.00   -10.80   -32.36  -10.765    0.01987    -4.64  LEFT      2.69757E-01    31.02    2.25231E-02  -162.84
   90.00    85.00   -12.78   -35.91  -12.762    0.01597    -3.88  LEFT      2.14576E-01    25.22    1.49653E-02  -168.08
   90.00    86.00   -15.34   -40.35  -15.322    0.01292    -3.13  LEFT      1.59935E-01    18.73    8.97460E-03  -174.62
   90.00    87.00   -18.88   -46.25  -18.875    0.01096    -2.37  LEFT      1.06306E-01    10.58    4.55397E-03   175.73
   90.00    88.00   -24.65   -54.76  -24.645    0.01082    -1.68  LEFT      5.47355E-02    -3.82    1.70916E-03   155.88
   90.00    89.00   -34.23   -65.44  -34.228    0.00250    -1.57  LEFT      1.81617E-02   -79.76    4.99740E-04    95.03
   90.00    90.00   -24.85  -999.99  -24.849    0.00000     0.00  LINEAR    5.34932E-02  -154.36    2.58244E-13  -140.69
   90.00    91.00   -19.39   -55.95  -19.387    0.00253     0.84  LEFT      1.00302E-01  -168.69    1.49043E-03  -158.90
   90.00    92.00   -16.13   -46.90  -16.122    0.00438     1.64  LEFT      1.46035E-01  -176.91    4.22401E-03  -168.18
   90.00    93.00   -13.85   -41.19  -13.843    0.00659     2.43  LEFT      1.89755E-01   176.49    8.14665E-03  -174.67
   90.00    94.00   -12.14   -37.03  -12.123    0.00937     3.22  LEFT      2.31128E-01   170.53    1.31652E-02  -179.97
   90.00    95.00   -10.79   -33.76  -10.767    0.01282     4.00  LEFT      2.69950E-01   164.89    1.91725E-02   175.34
   90.00    96.00    -9.70   -31.10   -9.667    0.01695     4.77  LEFT      3.06070E-01   159.42    2.60533E-02   170.99
   90.00    97.00    -8.80   -28.87   -8.758    0.02178     5.53  LEFT      3.39376E-01   154.06    3.36868E-02   166.85
   90.00    98.00    -8.06   -26.96   -8.000    0.02730     6.28  LEFT      3.69785E-01   148.75    4.19488E-02   162.85
   90.00    99.00    -7.43   -25.31   -7.363    0.03351     7.02  LEFT      3.97246E-01   143.47    5.07136E-02   158.93
   90.00   100.00    -6.91   -23.87   -6.827    0.04038     7.75  LEFT      4.21731E-01   138.22    5.98556E-02   155.06
   90.00   101.00    -6.48   -22.61   -6.377    0.04790     8.46  LEFT      4.43240E-01   132.98    6.92511E-02   151.24
   90.00   102.00    -6.13   -21.49   -6.001    0.05606     9.15  LEFT      4.61797E-01   127.73    7.87795E-02   147.43
   90.00   103.00    -5.84   -20.49   -5.690    0.06483     9.83  LEFT      4.77446E-01   122.49    8.83249E-02   143.64
   90.00   104.00    -5.61   -19.61   -5.437    0.07420    10.49  LEFT      4.90256E-01   117.23    9.77772E-02   139.86
   90.00   105.00    -5.43   -18.82   -5.235    0.08414    11.13  LEFT      5.00311E-01   111.96    1.07033E-01   136.07
   90.00   106.00    -5.30   -18.13   -5.081    0.09463    11.75  LEFT      5.07717E-01   106.69    1.15998E-01   132.28
   90.00   107.00    -5.22   -17.51   -4.970    0.10565    12.35  LEFT      5.12589E-01   101.39    1.24585E-01   128.48
   90.00   108.00    -5.18   -16.96   -4.898    0.11718    12.93  LEFT      5.15062E-01    96.09    1.32715E-01   124.67
   90.00   109.00    -5.17   -16.47   -4.863    0.12920    13.49  LEFT      5.15276E-01    90.76    1.40322E-01   120.85
   90.00   110.00    -5.21   -16.05   -4.862    0.14167    14.03  LEFT      5.13381E-01    85.43    1.47347E-01   117.01
   90.00   111.00    -5.27   -15.68   -4.893    0.15459    14.54  LEFT      5.09535E-01    80.08    1.53740E-01   113.17
   90.00   112.00    -5.37   -15.36   -4.953    0.16793    15.04  LEFT      5.03895E-01    74.71    1.59463E-01   109.31
   90.00   113.00    -5.49   -15.09   -5.042    0.18166    15.51  LEFT      4.96622E-01    69.34    1.64484E-01   105.44
   90.00   114.00    -5.65   -14.87   -5.157    0.19577    15.95  LEFT      4.87875E-01    63.96    1.68782E-01   101.57
   90.00   115.00    -5.83   -14.69   -5.298    0.21023    16.38  LEFT      4.77808E-01    58.58    1.72341E-01    97.69
   90.00   116.00    -6.04   -14.55   -5.464    0.22502    16.78  LEFT      4.66569E-01    53.20    1.75155E-01    93.81
   90.00   117.00    -6.27   -14.44   -5.652    0.24012    17.16  LEFT      4.54300E-01    47.82    1.77221E-01    89.93
   90.00   118.00    -6.52   -14.38   -5.864    0.25549    17.52  LEFT      4.41132E-01    42.46    1.78541E-01    86.07
   90.00   119.00    -6.80   -14.35   -6.099    0.27113    17.85  LEFT      4.27185E-01    37.13    1.79122E-01    82.22
   90.00   120.00    -7.10   -14.36   -6.356    0.28700    18.15  LEFT      4.12566E-01    31.82    1.78972E-01    78.40
   90.00   121.00    -7.43   -14.40   -6.636    0.30307    18.43  LEFT      3.97372E-01    26.56    1.78103E-01    74.61
   90.00   122.00    -7.78   -14.48   -6.939    0.31934    18.69  LEFT      3.81683E-01    21.36    1.76526E-01    70.87
   90.00   123.00    -8.16   -14.59   -7.266    0.33576    18.92  LEFT      3.65569E-01    16.22    1.74250E-01    67.20
   90.00   124.00    -8.56   -14.74   -7.619    0.35233    19.12  LEFT      3.49086E-01    11.18    1.71288E-01    63.60
   90.00   125.00    -8.98   -14.93   -8.000    0.36901    19.30  LEFT      3.32279E-01     6.24    1.67647E-01    60.10
   90.00   126.00    -9.44   -15.15   -8.410    0.38580    19.45  LEFT      3.15183E-01     1.43    1.63336E-01    56.71
   90.00   127.00    -9.94   -15.42   -8.854    0.40267    19.57  LEFT      2.97824E-01    -3.23    1.58364E-01    53.48
   90.00   128.00   -10.46   -15.74   -9.335    0.41962    19.66  LEFT      2.80224E-01    -7.70    1.52736E-01    50.41
   90.00   129.00   -11.04   -16.10   -9.857    0.43664    19.72  LEFT      2.62402E-01   -11.94    1.46464E-01    47.57
   90.00   130.00   -11.65   -16.52  -10.427    0.45375    19.75  LEFT      2.44378E-01   -15.91    1.39559E-01    44.99
   90.00   131.00   -12.33   -17.00  -11.052    0.47096    19.74  LEFT      2.26179E-01   -19.56    1.32041E-01    42.73
   90.00   132.00   -13.06   -17.55  -11.738    0.48831    19.69  LEFT      2.07846E-01   -22.79    1.23942E-01    40.89
   90.00   133.00   -13.86   -18.18  -12.496    0.50589    19.59  LEFT      1.89443E-01   -25.50    1.15315E-01    39.58
   90.00   134.00   -14.75   -18.89  -13.334    0.52384    19.43  LEFT      1.71071E-01   -27.56    1.06240E-01    38.96
   90.00   135.00   -15.73   -19.69  -14.261    0.54238    19.21  LEFT      1.52893E-01   -28.73    9.68551E-02    39.25
   90.00   136.00   -16.80   -20.59  -15.280    0.56190    18.93  LEFT      1.35175E-01   -28.72    8.73788E-02    40.78
   90.00   137.00   -17.95   -21.55  -16.379    0.58302    18.59  LEFT      1.18347E-01   -27.09    7.81724E-02    44.02
   90.00   138.00   -19.15   -22.53  -17.509    0.60658    18.27  LEFT      1.03119E-01   -23.22    6.98241E-02    49.55
   90.00   139.00   -20.27   -23.39  -18.547    0.63317    18.13  LEFT      9.06155E-02   -16.43    6.32480E-02    57.94
   90.00   140.00   -21.09   -23.90  -19.262    0.66136    18.54  LEFT      8.24355E-02    -6.41    5.96807E-02    69.21
   90.00   141.00   -21.32   -23.80  -19.380    0.68575    19.76  LEFT      8.02582E-02     5.90    6.03274E-02    82.09
   90.00   142.00   -20.84   -23.06  -18.802    0.70130    21.33  LEFT      8.48511E-02    18.09    6.56890E-02    94.29
   90.00   143.00   -19.82   -21.88  -17.715    0.71016    22.50  LEFT      9.54820E-02    27.94    7.53102E-02   104.08
   90.00   144.00   -18.54   -20.50  -16.399    0.71747    23.09  LEFT      1.10600E-01    34.80    8.82698E-02   111.08
   90.00   145.00   -17.22   -19.10  -15.048    0.72581    23.29  LEFT      1.28755E-01    39.08    1.03707E-01   115.76
   90.00   146.00   -15.96   -17.76  -13.754    0.73564    23.28  LEFT      1.48915E-01    41.47    1.20990E-01   118.71
   90.00   147.00   -14.78   -16.51  -12.553    0.74666    23.16  LEFT      1.70403E-01    42.55    1.39688E-01   120.46
   90.00   148.00   -13.71   -15.36  -11.449    0.75851    23.00  LEFT      1.92777E-01    42.74    1.59501E-01   121.35
   90.00   149.00   -12.74   -14.30  -10.437    0.77088    22.81  LEFT      2.15733E-01    42.31    1.80211E-01   121.66
   90.00   150.00   -11.84   -13.32   -9.511    0.78355    22.60  LEFT      2.39052E-01    41.45    2.01646E-01   121.54
   90.00   151.00   -11.03   -12.42   -8.660    0.79635    22.37  LEFT      2.62567E-01    40.31    2.23666E-01   121.13
   90.00   152.00   -10.28   -11.59   -7.877    0.80917    22.13  LEFT      2.86141E-01    38.97    2.46147E-01   120.51
   90.00   153.00    -9.60   -10.82   -7.155    0.82192    21.86  LEFT      3.09659E-01    37.50    2.68973E-01   119.74
   90.00   154.00    -8.97   -10.11   -6.488    0.83454    21.57  LEFT      3.33021E-01    35.95    2.92038E-01   118.87
   90.00   155.00    -8.38    -9.44   -5.869    0.84697    21.24  LEFT      3.56136E-01    34.36    3.15238E-01   117.93
   90.00   156.00    -7.84    -8.82   -5.296    0.85916    20.87  LEFT      3.78921E-01    32.75    3.38473E-01   116.95
   90.00   157.00    -7.35    -8.25   -4.763    0.87107    20.45  LEFT      4.01300E-01    31.14    3.61643E-01   115.96
   90.00   158.00    -6.88    -7.71   -4.268    0.88266    19.96  LEFT      4.23201E-01    29.55    3.84651E-01   114.95
   90.00   159.00    -6.46    -7.21   -3.808    0.89390    19.40  LEFT      4.44558E-01    27.99    4.07403E-01   113.96
   90.00   160.00    -6.06    -6.75   -3.380    0.90475    18.72  LEFT      4.65308E-01    26.47    4.29804E-01   112.98
   90.00   161.00    -5.69    -6.32   -2.983    0.91517    17.92  LEFT      4.85392E-01    25.00    4.51763E-01   112.02
   90.00   162.00    -5.35    -5.91   -2.614    0.92513    16.93  LEFT      5.04755E-01    23.58    4.73189E-01   111.09
   90.00   163.00    -5.04    -5.54   -2.272    0.93457    15.72  LEFT      5.23346E-01    22.22    4.93997E-01   110.20
   90.00   164.00    -4.75    -5.19   -1.955    0.94345    14.18  LEFT      5.41115E-01    20.93    5.14102E-01   109.35
   90.00   165.00    -4.48    -4.87   -1.663    0.95169    12.21  LEFT      5.58020E-01    19.71    5.33422E-01   108.54
   90.00   166.00    -4.24    -4.58   -1.393    0.95919     9.63  LEFT      5.74017E-01    18.56    5.51881E-01   107.77
   90.00   167.00    -4.01    -4.31   -1.146    0.96583     6.21  LEFT      5.89069E-01    17.48    5.69404E-01   107.05
   90.00   168.00    -3.81    -4.06   -0.920    0.97141     1.63  LEFT      6.03140E-01    16.47    5.85922E-01   106.38
   90.00   169.00    -3.62    -3.83   -0.714    0.97566    -4.32  LEFT      6.16199E-01    15.54    6.01368E-01   105.75
   90.00   170.00    -3.45    -3.63   -0.529    0.97832   -11.56  LEFT      6.28216E-01    14.69    6.15682E-01   105.18
   90.00   171.00    -3.30    -3.44   -0.362    0.97931   -19.30  LEFT      6.39165E-01    13.92    6.28808E-01   104.66
   90.00   172.00    -3.17    -3.28   -0.215    0.97886   -26.40  LEFT      6.49023E-01    13.22    6.40693E-01   104.20
   90.00   173.00    -3.05    -3.14   -0.086    0.97747   -32.13  LEFT      6.57769E-01    12.61    6.51291E-01   103.79
   90.00   174.00    -2.95    -3.02    0.026    0.97563   -36.42  LEFT      6.65384E-01    12.08    6.60561E-01   103.43
   90.00   175.00    -2.87    -2.91    0.119    0.97371   -39.53  LEFT      6.71854E-01    11.62    6.68467E-01   103.12
   90.00   176.00    -2.80    -2.83    0.196    0.97195   -41.73  LEFT      6.77165E-01    11.25    6.74977E-01   102.87
   90.00   177.00    -2.75    -2.76    0.255    0.97048   -43.26  LEFT      6.81306E-01    10.97    6.80067E-01   102.68
   90.00   178.00    -2.71    -2.72    0.297    0.96939   -44.25  LEFT      6.84271E-01    10.76    6.83717E-01   102.54
   90.00   179.00    -2.69    -2.69    0.322    0.96872   -44.82  LEFT      6.86051E-01    10.64    6.85912E-01   102.46
   90.00   180.00    -2.68    -2.68    0.330    0.96849   -45.00  LEFT      6.86645E-01    10.60    6.86645E-01   102.43
 ***** DATA CARD NO.   5 EN     0     0     0     0  0.00000E+00  0.00000E+00  0.00000E+00  0.00000E+00  0.00000E+00  0.00000E+00

 RUN TIME =     1.690
