 
 
 **********************************************
    NUMERICAL ELECTROMAGNETICS CODE (NEC-2D-P)
 **********************************************
 
 Enhanced version, copyright 1997-2003 Nittany Scientific
 
 Run date:  16:11:19 on 02-JAN-2012
 
 Parameter dimensions:
 
   NEC2D Version:  3.2NA
   Maximum # of segments:          2000
   Maximum # of segments in core:           640
   Maximum # of new connections to NGF segments:           180
   Maximum # of sources:            60
   Maximum # of degrees of symmetry:           360
   Maximum # of networks:            90
   Maximum # of segments at a junction:            90
   Maximum # of loads:           300
   Maximum # of frequencies or angles:           361
 
 **********************************************
 
1



                                 *********************************************

                                    NUMERICAL ELECTROMAGNETICS CODE (NEC-2D)

                                 *********************************************




                                     - - - - COMMENTS - - - -


  AC6P Dual 7-element 2M CP Satellite Yagi antenna                                                                               
                                                                                                                                 
  *** DEFINE A SINGLE 7-ELEMENT HORIZONTAL REF. YAGI




                                 - - - STRUCTURE SPECIFICATION - - -

                                     COORDINATES MUST BE INPUT IN
                                     METERS OR BE SCALED TO METERS
                                     BEFORE STRUCTURE INPUT IS ENDED


  WIRE                                                                               NO. OF    FIRST  LAST     TAG
  NO.        X1         Y1         Z1          X2         Y2         Z2      RADIUS   SEG.     SEG.   SEG.     NO.
     1  -41.50000  -50.85000    0.00000   -41.50000   50.85000    0.00000    0.35000      9        1     9       1
     2    0.00000  -48.25000    0.00000     0.00000   48.25000    0.00000    0.35000      9       10    18       2
     3   41.50000  -45.07500    0.00000    41.50000   45.07500    0.00000    0.35000      9       19    27       3
     4   83.00000  -44.40000    0.00000    83.00000   44.40000    0.00000    0.35000      9       28    36       4
      THE STRUCTURE HAS BEEN MOVED, MOVE DATA CARD IS -
        1    3   0.00000   0.00000   0.00000  41.50000   0.00000   0.00000   4.30000
       GM command acting on tag #'s            4 through          300
  inclusive.
  *** CREATE AN IDENTICAL VERTICAL BEAM 0.25 WAVELENGTH AWAY
      THE STRUCTURE HAS BEEN MOVED, MOVE DATA CARD IS -
       50    1  90.00000   0.00000   0.00000  51.50000   0.00000   0.00000   1.30000
       GM command acting on tag #'s            1 through          300
  inclusive.
      STRUCTURE SCALED BY FACTOR   0.01000

   TOTAL SEGMENTS USED=  126     NO. SEG. IN A SYMMETRIC CELL=  126     SYMMETRY FLAG=  0


         - MULTIPLE WIRE JUNCTIONS -
 JUNCTION    SEGMENTS  (- FOR END 1, + FOR END 2)
  NONE




                                 - - - - SEGMENTATION DATA - - - -

                                        COORDINATES IN METERS

                         I+ AND I- INDICATE THE SEGMENTS BEFORE AND AFTER I


  SEG.     COORDINATES OF SEG. CENTER       SEG.     ORIENTATION ANGLES    WIRE    CONNECTION DATA   TAG
  NO.        X          Y          Z        LENGTH     ALPHA     BETA      RADIUS    I-   I    I+    NO.
     1   -0.41500   -0.45200    0.00000    0.11300    0.00000  90.00000   0.00350     0    1    2      1
     2   -0.41500   -0.33900    0.00000    0.11300    0.00000  90.00000   0.00350     1    2    3      1
     3   -0.41500   -0.22600    0.00000    0.11300    0.00000  90.00000   0.00350     2    3    4      1
     4   -0.41500   -0.11300    0.00000    0.11300    0.00000  90.00000   0.00350     3    4    5      1
     5   -0.41500    0.00000    0.00000    0.11300    0.00000  90.00000   0.00350     4    5    6      1
     6   -0.41500    0.11300    0.00000    0.11300    0.00000  90.00000   0.00350     5    6    7      1
     7   -0.41500    0.22600    0.00000    0.11300    0.00000  90.00000   0.00350     6    7    8      1
     8   -0.41500    0.33900    0.00000    0.11300    0.00000  90.00000   0.00350     7    8    9      1
     9   -0.41500    0.45200    0.00000    0.11300    0.00000  90.00000   0.00350     8    9    0      1
    10    0.00000   -0.42889    0.00000    0.10722    0.00000  90.00000   0.00350     0   10   11      2
    11    0.00000   -0.32167    0.00000    0.10722    0.00000  90.00000   0.00350    10   11   12      2
    12    0.00000   -0.21444    0.00000    0.10722    0.00000  90.00000   0.00350    11   12   13      2
    13    0.00000   -0.10722    0.00000    0.10722    0.00000  90.00000   0.00350    12   13   14      2
    14    0.00000    0.00000    0.00000    0.10722    0.00000  90.00000   0.00350    13   14   15      2
    15    0.00000    0.10722    0.00000    0.10722    0.00000  90.00000   0.00350    14   15   16      2
    16    0.00000    0.21444    0.00000    0.10722    0.00000  90.00000   0.00350    15   16   17      2
    17    0.00000    0.32167    0.00000    0.10722    0.00000  90.00000   0.00350    16   17   18      2
    18    0.00000    0.42889    0.00000    0.10722    0.00000  90.00000   0.00350    17   18    0      2
    19    0.41500   -0.40067    0.00000    0.10017    0.00000  90.00000   0.00350     0   19   20      3
    20    0.41500   -0.30050    0.00000    0.10017    0.00000  90.00000   0.00350    19   20   21      3
    21    0.41500   -0.20033    0.00000    0.10017    0.00000  90.00000   0.00350    20   21   22      3
    22    0.41500   -0.10017    0.00000    0.10017    0.00000  90.00000   0.00350    21   22   23      3
    23    0.41500    0.00000    0.00000    0.10017    0.00000  90.00000   0.00350    22   23   24      3
    24    0.41500    0.10017    0.00000    0.10017    0.00000  90.00000   0.00350    23   24   25      3
    25    0.41500    0.20033    0.00000    0.10017    0.00000  90.00000   0.00350    24   25   26      3
    26    0.41500    0.30050    0.00000    0.10017    0.00000  90.00000   0.00350    25   26   27      3
    27    0.41500    0.40067    0.00000    0.10017    0.00000  90.00000   0.00350    26   27    0      3
    28    0.83000   -0.39467    0.00000    0.09867    0.00000  90.00000   0.00350     0   28   29      4
    29    0.83000   -0.29600    0.00000    0.09867    0.00000  90.00000   0.00350    28   29   30      4
    30    0.83000   -0.19733    0.00000    0.09867    0.00000  90.00000   0.00350    29   30   31      4
    31    0.83000   -0.09867    0.00000    0.09867    0.00000  90.00000   0.00350    30   31   32      4
    32    0.83000    0.00000    0.00000    0.09867    0.00000  90.00000   0.00350    31   32   33      4
    33    0.83000    0.09867    0.00000    0.09867    0.00000  90.00000   0.00350    32   33   34      4
    34    0.83000    0.19733    0.00000    0.09867    0.00000  90.00000   0.00350    33   34   35      4
    35    0.83000    0.29600    0.00000    0.09867    0.00000  90.00000   0.00350    34   35   36      4
    36    0.83000    0.39467    0.00000    0.09867    0.00000  90.00000   0.00350    35   36    0      4
    37    1.24500   -0.39467    0.00000    0.09867    0.00000  90.00000   0.00350     0   37   38      5
    38    1.24500   -0.29600    0.00000    0.09867    0.00000  90.00000   0.00350    37   38   39      5
    39    1.24500   -0.19733    0.00000    0.09867    0.00000  90.00000   0.00350    38   39   40      5
    40    1.24500   -0.09867    0.00000    0.09867    0.00000  90.00000   0.00350    39   40   41      5
    41    1.24500    0.00000    0.00000    0.09867    0.00000  90.00000   0.00350    40   41   42      5
    42    1.24500    0.09867    0.00000    0.09867    0.00000  90.00000   0.00350    41   42   43      5
    43    1.24500    0.19733    0.00000    0.09867    0.00000  90.00000   0.00350    42   43   44      5
    44    1.24500    0.29600    0.00000    0.09867    0.00000  90.00000   0.00350    43   44   45      5
    45    1.24500    0.39467    0.00000    0.09867    0.00000  90.00000   0.00350    44   45    0      5
    46    1.66000   -0.39467    0.00000    0.09867    0.00000  90.00000   0.00350     0   46   47      6
    47    1.66000   -0.29600    0.00000    0.09867    0.00000  90.00000   0.00350    46   47   48      6
    48    1.66000   -0.19733    0.00000    0.09867    0.00000  90.00000   0.00350    47   48   49      6
    49    1.66000   -0.09867    0.00000    0.09867    0.00000  90.00000   0.00350    48   49   50      6
    50    1.66000    0.00000    0.00000    0.09867    0.00000  90.00000   0.00350    49   50   51      6
    51    1.66000    0.09867    0.00000    0.09867    0.00000  90.00000   0.00350    50   51   52      6
    52    1.66000    0.19733    0.00000    0.09867    0.00000  90.00000   0.00350    51   52   53      6
    53    1.66000    0.29600    0.00000    0.09867    0.00000  90.00000   0.00350    52   53   54      6
    54    1.66000    0.39467    0.00000    0.09867    0.00000  90.00000   0.00350    53   54    0      6
    55    2.07500   -0.39467    0.00000    0.09867    0.00000  90.00000   0.00350     0   55   56      7
    56    2.07500   -0.29600    0.00000    0.09867    0.00000  90.00000   0.00350    55   56   57      7
    57    2.07500   -0.19733    0.00000    0.09867    0.00000  90.00000   0.00350    56   57   58      7
    58    2.07500   -0.09867    0.00000    0.09867    0.00000  90.00000   0.00350    57   58   59      7
    59    2.07500    0.00000    0.00000    0.09867    0.00000  90.00000   0.00350    58   59   60      7
    60    2.07500    0.09867    0.00000    0.09867    0.00000  90.00000   0.00350    59   60   61      7
    61    2.07500    0.19733    0.00000    0.09867    0.00000  90.00000   0.00350    60   61   62      7
    62    2.07500    0.29600    0.00000    0.09867    0.00000  90.00000   0.00350    61   62   63      7
    63    2.07500    0.39467    0.00000    0.09867    0.00000  90.00000   0.00350    62   63    0      7
    64    0.10000    0.00000   -0.45200    0.11300   90.00000 -90.00000   0.00350     0   64   65     51
    65    0.10000    0.00000   -0.33900    0.11300   90.00000 -90.00000   0.00350    64   65   66     51
    66    0.10000    0.00000   -0.22600    0.11300   90.00000 -90.00000   0.00350    65   66   67     51
    67    0.10000    0.00000   -0.11300    0.11300   90.00000 -90.00000   0.00350    66   67   68     51
    68    0.10000    0.00000    0.00000    0.11300   90.00000 -90.00000   0.00350    67   68   69     51
    69    0.10000    0.00000    0.11300    0.11300   90.00000 -90.00000   0.00350    68   69   70     51
    70    0.10000    0.00000    0.22600    0.11300   90.00000 -90.00000   0.00350    69   70   71     51
    71    0.10000    0.00000    0.33900    0.11300   90.00000 -90.00000   0.00350    70   71   72     51
    72    0.10000    0.00000    0.45200    0.11300   90.00000 -90.00000   0.00350    71   72    0     51
    73    0.51500    0.00000   -0.42889    0.10722   90.00000 -90.00000   0.00350     0   73   74     52
    74    0.51500    0.00000   -0.32167    0.10722   90.00000 -90.00000   0.00350    73   74   75     52
    75    0.51500    0.00000   -0.21444    0.10722   90.00000 -90.00000   0.00350    74   75   76     52
    76    0.51500    0.00000   -0.10722    0.10722   90.00000 -90.00000   0.00350    75   76   77     52
    77    0.51500    0.00000    0.00000    0.10722   90.00000 -90.00000   0.00350    76   77   78     52
    78    0.51500    0.00000    0.10722    0.10722   90.00000 -90.00000   0.00350    77   78   79     52
    79    0.51500    0.00000    0.21444    0.10722   90.00000 -90.00000   0.00350    78   79   80     52
    80    0.51500    0.00000    0.32167    0.10722   90.00000 -90.00000   0.00350    79   80   81     52
    81    0.51500    0.00000    0.42889    0.10722   90.00000 -90.00000   0.00350    80   81    0     52
    82    0.93000    0.00000   -0.40067    0.10017   90.00000 -90.00000   0.00350     0   82   83     53
    83    0.93000    0.00000   -0.30050    0.10017   90.00000 -90.00000   0.00350    82   83   84     53
    84    0.93000    0.00000   -0.20033    0.10017   90.00000 -90.00000   0.00350    83   84   85     53
    85    0.93000    0.00000   -0.10017    0.10017   90.00000 -90.00000   0.00350    84   85   86     53
    86    0.93000    0.00000    0.00000    0.10017   90.00000 -90.00000   0.00350    85   86   87     53
    87    0.93000    0.00000    0.10017    0.10017   90.00000 -90.00000   0.00350    86   87   88     53
    88    0.93000    0.00000    0.20033    0.10017   90.00000 -90.00000   0.00350    87   88   89     53
    89    0.93000    0.00000    0.30050    0.10017   90.00000 -90.00000   0.00350    88   89   90     53
    90    0.93000    0.00000    0.40067    0.10017   90.00000 -90.00000   0.00350    89   90    0     53
    91    1.34500    0.00000   -0.39467    0.09867   90.00000 -90.00000   0.00350     0   91   92     54
    92    1.34500    0.00000   -0.29600    0.09867   90.00000 -90.00000   0.00350    91   92   93     54
    93    1.34500    0.00000   -0.19733    0.09867   90.00000 -90.00000   0.00350    92   93   94     54
    94    1.34500    0.00000   -0.09867    0.09867   90.00000 -90.00000   0.00350    93   94   95     54
    95    1.34500    0.00000    0.00000    0.09867   90.00000 -90.00000   0.00350    94   95   96     54
    96    1.34500    0.00000    0.09867    0.09867   90.00000 -90.00000   0.00350    95   96   97     54
    97    1.34500    0.00000    0.19733    0.09867   90.00000 -90.00000   0.00350    96   97   98     54
    98    1.34500    0.00000    0.29600    0.09867   90.00000 -90.00000   0.00350    97   98   99     54
    99    1.34500    0.00000    0.39467    0.09867   90.00000 -90.00000   0.00350    98   99    0     54
   100    1.76000    0.00000   -0.39467    0.09867   90.00000 -90.00000   0.00350     0  100  101     55
   101    1.76000    0.00000   -0.29600    0.09867   90.00000 -90.00000   0.00350   100  101  102     55
   102    1.76000    0.00000   -0.19733    0.09867   90.00000 -90.00000   0.00350   101  102  103     55
   103    1.76000    0.00000   -0.09867    0.09867   90.00000 -90.00000   0.00350   102  103  104     55
   104    1.76000    0.00000    0.00000    0.09867   90.00000 -90.00000   0.00350   103  104  105     55
   105    1.76000    0.00000    0.09867    0.09867   90.00000 -90.00000   0.00350   104  105  106     55
   106    1.76000    0.00000    0.19733    0.09867   90.00000 -90.00000   0.00350   105  106  107     55
   107    1.76000    0.00000    0.29600    0.09867   90.00000 -90.00000   0.00350   106  107  108     55
   108    1.76000    0.00000    0.39467    0.09867   90.00000 -90.00000   0.00350   107  108    0     55
   109    2.17500    0.00000   -0.39467    0.09867   90.00000 -90.00000   0.00350     0  109  110     56
   110    2.17500    0.00000   -0.29600    0.09867   90.00000 -90.00000   0.00350   109  110  111     56
   111    2.17500    0.00000   -0.19733    0.09867   90.00000 -90.00000   0.00350   110  111  112     56
   112    2.17500    0.00000   -0.09867    0.09867   90.00000 -90.00000   0.00350   111  112  113     56
   113    2.17500    0.00000    0.00000    0.09867   90.00000 -90.00000   0.00350   112  113  114     56
   114    2.17500    0.00000    0.09867    0.09867   90.00000 -90.00000   0.00350   113  114  115     56
   115    2.17500    0.00000    0.19733    0.09867   90.00000 -90.00000   0.00350   114  115  116     56
   116    2.17500    0.00000    0.29600    0.09867   90.00000 -90.00000   0.00350   115  116  117     56
   117    2.17500    0.00000    0.39467    0.09867   90.00000 -90.00000   0.00350   116  117    0     56
   118    2.59000    0.00000   -0.39467    0.09867   90.00000 -90.00000   0.00350     0  118  119     57
   119    2.59000    0.00000   -0.29600    0.09867   90.00000 -90.00000   0.00350   118  119  120     57
   120    2.59000    0.00000   -0.19733    0.09867   90.00000 -90.00000   0.00350   119  120  121     57
   121    2.59000    0.00000   -0.09867    0.09867   90.00000 -90.00000   0.00350   120  121  122     57
   122    2.59000    0.00000    0.00000    0.09867   90.00000 -90.00000   0.00350   121  122  123     57
   123    2.59000    0.00000    0.09867    0.09867   90.00000 -90.00000   0.00350   122  123  124     57
   124    2.59000    0.00000    0.19733    0.09867   90.00000 -90.00000   0.00350   123  124  125     57
   125    2.59000    0.00000    0.29600    0.09867   90.00000 -90.00000   0.00350   124  125  126     57
   126    2.59000    0.00000    0.39467    0.09867   90.00000 -90.00000   0.00350   125  126    0     57






   LD 1 2 5 5 1E8 1E8 7E-12
   LD 0 5 5 5 0 0 1.86E-12
 ***** DATA CARD NO.   1 EX     0     2     5     0  1.00000E+00  0.00000E+00  0.00000E+00  0.00000E+00  0.00000E+00  0.00000E+00
 ***** DATA CARD NO.   2 EX     0    52     5     0  1.00000E+00  0.00000E+00  0.00000E+00  0.00000E+00  0.00000E+00  0.00000E+00
  TL 2 5 52 5 50.00 1.09     ! RG-58A POLYETHYLENE
 ***** DATA CARD NO.   3 FR     0     6     0     0  1.44000E+02  5.00000E-01  0.00000E+00  0.00000E+00  0.00000E+00  0.00000E+00
 ***** DATA CARD NO.   4 RP     0     1   181  1500  9.00000E+01  0.00000E+00  1.00000E+00  1.00000E+00  0.00000E+00  0.00000E+00




                                 - - - - - - FREQUENCY - - - - - -

                                    FREQUENCY= 1.4400E+02 MHZ
                                    WAVELENGTH= 2.0819E+00 METERS




                    APPROXIMATE INTEGRATION EMPLOYED FOR SEGMENTS MORE THAN   1.000 WAVELENGTHS APART



                               - - - STRUCTURE IMPEDANCE LOADING - - -

                                   THIS STRUCTURE IS NOT LOADED



                                  - - - ANTENNA ENVIRONMENT - - -

                                            FREE SPACE



                                - - - MATRIX TIMING - - -

                        FILL=    0.120 SEC.,  FACTOR=    0.020 SEC.



                                          - - - ANTENNA INPUT PARAMETERS - - -

   TAG   SEG.    VOLTAGE (VOLTS)         CURRENT (AMPS)         IMPEDANCE (OHMS)        ADMITTANCE (MHOS)      POWER
   NO.   NO.    REAL        IMAG.       REAL        IMAG.       REAL        IMAG.       REAL        IMAG.     (WATTS)
     2    14 1.00000E+00 0.00000E+00 2.77493E-02 4.33029E-03 3.51802E+01-5.48988E+00 2.77493E-02 4.33029E-03 1.38747E-02
    52    77 1.00000E+00 0.00000E+00 2.77493E-02 4.33029E-03 3.51802E+01-5.48988E+00 2.77493E-02 4.33029E-03 1.38747E-02



                             - - - CURRENTS AND LOCATION - - -

                                 DISTANCES IN WAVELENGTHS


  SEG.  TAG    COORD. OF SEG. CENTER     SEG.            - - - CURRENT (AMPS) - - -
  NO.   NO.     X        Y        Z      LENGTH     REAL        IMAG.       MAG.        PHASE
     1    1  -0.1993  -0.2171   0.0000  0.05428  -2.0232E-03  1.4179E-03  2.4706E-03  144.977
     2    1  -0.1993  -0.1628   0.0000  0.05428  -5.1385E-03  3.5445E-03  6.2424E-03  145.402
     3    1  -0.1993  -0.1086   0.0000  0.05428  -7.5308E-03  5.1307E-03  9.1125E-03  145.733
     4    1  -0.1993  -0.0543   0.0000  0.05428  -9.0772E-03  6.1368E-03  1.0957E-02  145.939
     5    1  -0.1993   0.0000   0.0000  0.05428  -9.6128E-03  6.4820E-03  1.1594E-02  146.008
     6    1  -0.1993   0.0543   0.0000  0.05428  -9.0772E-03  6.1368E-03  1.0957E-02  145.939
     7    1  -0.1993   0.1086   0.0000  0.05428  -7.5308E-03  5.1307E-03  9.1125E-03  145.733
     8    1  -0.1993   0.1628   0.0000  0.05428  -5.1385E-03  3.5445E-03  6.2424E-03  145.402
     9    1  -0.1993   0.2171   0.0000  0.05428  -2.0232E-03  1.4179E-03  2.4706E-03  144.977
    10    2   0.0000  -0.2060   0.0000  0.05150   6.1228E-03  5.7964E-04  6.1502E-03    5.408
    11    2   0.0000  -0.1545   0.0000  0.05150   1.5223E-02  1.6154E-03  1.5309E-02    6.057
    12    2   0.0000  -0.1030   0.0000  0.05150   2.1988E-02  2.6286E-03  2.2145E-02    6.817
    13    2   0.0000  -0.0515   0.0000  0.05150   2.6277E-02  3.6004E-03  2.6523E-02    7.802
    14    2   0.0000   0.0000   0.0000  0.05150   2.7749E-02  4.3303E-03  2.8085E-02    8.869
    15    2   0.0000   0.0515   0.0000  0.05150   2.6277E-02  3.6004E-03  2.6523E-02    7.802
    16    2   0.0000   0.1030   0.0000  0.05150   2.1988E-02  2.6286E-03  2.2145E-02    6.817
    17    2   0.0000   0.1545   0.0000  0.05150   1.5223E-02  1.6154E-03  1.5309E-02    6.057
    18    2   0.0000   0.2060   0.0000  0.05150   6.1228E-03  5.7964E-04  6.1502E-03    5.408
    19    3   0.1993  -0.1924   0.0000  0.04811  -2.2749E-03 -3.3513E-03  4.0505E-03 -124.169
    20    3   0.1993  -0.1443   0.0000  0.04811  -5.5888E-03 -8.2141E-03  9.9351E-03 -124.231
    21    3   0.1993  -0.0962   0.0000  0.04811  -8.0167E-03 -1.1763E-02  1.4235E-02 -124.276
    22    3   0.1993  -0.0481   0.0000  0.04811  -9.5441E-03 -1.3990E-02  1.6936E-02 -124.302
    23    3   0.1993   0.0000   0.0000  0.04811  -1.0066E-02 -1.4751E-02  1.7858E-02 -124.310
    24    3   0.1993   0.0481   0.0000  0.04811  -9.5441E-03 -1.3990E-02  1.6936E-02 -124.302
    25    3   0.1993   0.0962   0.0000  0.04811  -8.0167E-03 -1.1763E-02  1.4235E-02 -124.276
    26    3   0.1993   0.1443   0.0000  0.04811  -5.5888E-03 -8.2141E-03  9.9351E-03 -124.231
    27    3   0.1993   0.1924   0.0000  0.04811  -2.2749E-03 -3.3513E-03  4.0505E-03 -124.169
    28    4   0.3987  -0.1896   0.0000  0.04739  -2.2309E-03  8.1282E-04  2.3743E-03  159.981
    29    4   0.3987  -0.1422   0.0000  0.04739  -5.4390E-03  1.9823E-03  5.7890E-03  159.975
    30    4   0.3987  -0.0948   0.0000  0.04739  -7.7608E-03  2.8295E-03  8.2606E-03  159.969
    31    4   0.3987  -0.0474   0.0000  0.04739  -9.2108E-03  3.3590E-03  9.8042E-03  159.964
    32    4   0.3987   0.0000   0.0000  0.04739  -9.7048E-03  3.5395E-03  1.0330E-02  159.962
    33    4   0.3987   0.0474   0.0000  0.04739  -9.2108E-03  3.3590E-03  9.8042E-03  159.964
    34    4   0.3987   0.0948   0.0000  0.04739  -7.7608E-03  2.8295E-03  8.2606E-03  159.969
    35    4   0.3987   0.1422   0.0000  0.04739  -5.4390E-03  1.9823E-03  5.7890E-03  159.975
    36    4   0.3987   0.1896   0.0000  0.04739  -2.2309E-03  8.1282E-04  2.3743E-03  159.981
    37    5   0.5980  -0.1896   0.0000  0.04739   1.4067E-03  2.7904E-03  3.1249E-03   63.246
    38    5   0.5980  -0.1422   0.0000  0.04739   3.4258E-03  6.8010E-03  7.6150E-03   63.265
    39    5   0.5980  -0.0948   0.0000  0.04739   4.8846E-03  9.7021E-03  1.0862E-02   63.277
    40    5   0.5980  -0.0474   0.0000  0.04739   5.7948E-03  1.1513E-02  1.2889E-02   63.283
    41    5   0.5980   0.0000   0.0000  0.04739   6.1048E-03  1.2130E-02  1.3580E-02   63.285
    42    5   0.5980   0.0474   0.0000  0.04739   5.7948E-03  1.1513E-02  1.2889E-02   63.283
    43    5   0.5980   0.0948   0.0000  0.04739   4.8846E-03  9.7021E-03  1.0862E-02   63.277
    44    5   0.5980   0.1422   0.0000  0.04739   3.4258E-03  6.8010E-03  7.6150E-03   63.265
    45    5   0.5980   0.1896   0.0000  0.04739   1.4067E-03  2.7904E-03  3.1249E-03   63.246
    46    6   0.7973  -0.1896   0.0000  0.04739   2.2669E-03 -1.8535E-04  2.2745E-03   -4.674
    47    6   0.7973  -0.1422   0.0000  0.04739   5.5208E-03 -4.4899E-04  5.5390E-03   -4.649
    48    6   0.7973  -0.0948   0.0000  0.04739   7.8714E-03 -6.3777E-04  7.8972E-03   -4.632
    49    6   0.7973  -0.0474   0.0000  0.04739   9.3378E-03 -7.5496E-04  9.3683E-03   -4.622
    50    6   0.7973   0.0000   0.0000  0.04739   9.8371E-03 -7.9477E-04  9.8691E-03   -4.619
    51    6   0.7973   0.0474   0.0000  0.04739   9.3378E-03 -7.5496E-04  9.3683E-03   -4.622
    52    6   0.7973   0.0948   0.0000  0.04739   7.8714E-03 -6.3777E-04  7.8972E-03   -4.632
    53    6   0.7973   0.1422   0.0000  0.04739   5.5208E-03 -4.4899E-04  5.5390E-03   -4.649
    54    6   0.7973   0.1896   0.0000  0.04739   2.2669E-03 -1.8535E-04  2.2745E-03   -4.674
    55    7   0.9967  -0.1896   0.0000  0.04739  -1.0701E-03 -2.8492E-03  3.0436E-03 -110.586
    56    7   0.9967  -0.1422   0.0000  0.04739  -2.6280E-03 -6.9431E-03  7.4238E-03 -110.732
    57    7   0.9967  -0.0948   0.0000  0.04739  -3.7712E-03 -9.9038E-03  1.0597E-02 -110.846
    58    7   0.9967  -0.0474   0.0000  0.04739  -4.4914E-03 -1.1752E-02  1.2581E-02 -110.916
    59    7   0.9967   0.0000   0.0000  0.04739  -4.7379E-03 -1.2381E-02  1.3257E-02 -110.940
    60    7   0.9967   0.0474   0.0000  0.04739  -4.4914E-03 -1.1752E-02  1.2581E-02 -110.916
    61    7   0.9967   0.0948   0.0000  0.04739  -3.7712E-03 -9.9038E-03  1.0597E-02 -110.846
    62    7   0.9967   0.1422   0.0000  0.04739  -2.6280E-03 -6.9431E-03  7.4238E-03 -110.732
    63    7   0.9967   0.1896   0.0000  0.04739  -1.0701E-03 -2.8492E-03  3.0436E-03 -110.586
    64   51   0.0480   0.0000  -0.2171  0.05428  -2.0232E-03  1.4179E-03  2.4706E-03  144.977
    65   51   0.0480   0.0000  -0.1628  0.05428  -5.1385E-03  3.5445E-03  6.2424E-03  145.402
    66   51   0.0480   0.0000  -0.1086  0.05428  -7.5308E-03  5.1307E-03  9.1125E-03  145.733
    67   51   0.0480   0.0000  -0.0543  0.05428  -9.0772E-03  6.1368E-03  1.0957E-02  145.939
    68   51   0.0480   0.0000   0.0000  0.05428  -9.6128E-03  6.4820E-03  1.1594E-02  146.008
    69   51   0.0480   0.0000   0.0543  0.05428  -9.0772E-03  6.1368E-03  1.0957E-02  145.939
    70   51   0.0480   0.0000   0.1086  0.05428  -7.5308E-03  5.1307E-03  9.1125E-03  145.733
    71   51   0.0480   0.0000   0.1628  0.05428  -5.1385E-03  3.5445E-03  6.2424E-03  145.402
    72   51   0.0480   0.0000   0.2171  0.05428  -2.0232E-03  1.4179E-03  2.4706E-03  144.977
    73   52   0.2474   0.0000  -0.2060  0.05150   6.1228E-03  5.7964E-04  6.1502E-03    5.408
    74   52   0.2474   0.0000  -0.1545  0.05150   1.5223E-02  1.6154E-03  1.5309E-02    6.057
    75   52   0.2474   0.0000  -0.1030  0.05150   2.1988E-02  2.6286E-03  2.2145E-02    6.817
    76   52   0.2474   0.0000  -0.0515  0.05150   2.6277E-02  3.6004E-03  2.6523E-02    7.802
    77   52   0.2474   0.0000   0.0000  0.05150   2.7749E-02  4.3303E-03  2.8085E-02    8.869
    78   52   0.2474   0.0000   0.0515  0.05150   2.6277E-02  3.6004E-03  2.6523E-02    7.802
    79   52   0.2474   0.0000   0.1030  0.05150   2.1988E-02  2.6286E-03  2.2145E-02    6.817
    80   52   0.2474   0.0000   0.1545  0.05150   1.5223E-02  1.6154E-03  1.5309E-02    6.057
    81   52   0.2474   0.0000   0.2060  0.05150   6.1228E-03  5.7964E-04  6.1502E-03    5.408
    82   53   0.4467   0.0000  -0.1924  0.04811  -2.2749E-03 -3.3513E-03  4.0505E-03 -124.169
    83   53   0.4467   0.0000  -0.1443  0.04811  -5.5888E-03 -8.2141E-03  9.9351E-03 -124.231
    84   53   0.4467   0.0000  -0.0962  0.04811  -8.0167E-03 -1.1763E-02  1.4235E-02 -124.276
    85   53   0.4467   0.0000  -0.0481  0.04811  -9.5441E-03 -1.3990E-02  1.6936E-02 -124.302
    86   53   0.4467   0.0000   0.0000  0.04811  -1.0066E-02 -1.4751E-02  1.7858E-02 -124.310
    87   53   0.4467   0.0000   0.0481  0.04811  -9.5441E-03 -1.3990E-02  1.6936E-02 -124.302
    88   53   0.4467   0.0000   0.0962  0.04811  -8.0167E-03 -1.1763E-02  1.4235E-02 -124.276
    89   53   0.4467   0.0000   0.1443  0.04811  -5.5888E-03 -8.2141E-03  9.9351E-03 -124.231
    90   53   0.4467   0.0000   0.1924  0.04811  -2.2749E-03 -3.3513E-03  4.0505E-03 -124.169
    91   54   0.6460   0.0000  -0.1896  0.04739  -2.2309E-03  8.1282E-04  2.3743E-03  159.981
    92   54   0.6460   0.0000  -0.1422  0.04739  -5.4390E-03  1.9823E-03  5.7890E-03  159.975
    93   54   0.6460   0.0000  -0.0948  0.04739  -7.7608E-03  2.8295E-03  8.2606E-03  159.969
    94   54   0.6460   0.0000  -0.0474  0.04739  -9.2108E-03  3.3590E-03  9.8042E-03  159.964
    95   54   0.6460   0.0000   0.0000  0.04739  -9.7048E-03  3.5395E-03  1.0330E-02  159.962
    96   54   0.6460   0.0000   0.0474  0.04739  -9.2108E-03  3.3590E-03  9.8042E-03  159.964
    97   54   0.6460   0.0000   0.0948  0.04739  -7.7608E-03  2.8295E-03  8.2606E-03  159.969
    98   54   0.6460   0.0000   0.1422  0.04739  -5.4390E-03  1.9823E-03  5.7890E-03  159.975
    99   54   0.6460   0.0000   0.1896  0.04739  -2.2309E-03  8.1282E-04  2.3743E-03  159.981
   100   55   0.8454   0.0000  -0.1896  0.04739   1.4067E-03  2.7904E-03  3.1249E-03   63.246
   101   55   0.8454   0.0000  -0.1422  0.04739   3.4258E-03  6.8010E-03  7.6150E-03   63.265
   102   55   0.8454   0.0000  -0.0948  0.04739   4.8846E-03  9.7021E-03  1.0862E-02   63.277
   103   55   0.8454   0.0000  -0.0474  0.04739   5.7948E-03  1.1513E-02  1.2889E-02   63.283
   104   55   0.8454   0.0000   0.0000  0.04739   6.1048E-03  1.2130E-02  1.3580E-02   63.285
   105   55   0.8454   0.0000   0.0474  0.04739   5.7948E-03  1.1513E-02  1.2889E-02   63.283
   106   55   0.8454   0.0000   0.0948  0.04739   4.8846E-03  9.7021E-03  1.0862E-02   63.277
   107   55   0.8454   0.0000   0.1422  0.04739   3.4258E-03  6.8010E-03  7.6150E-03   63.265
   108   55   0.8454   0.0000   0.1896  0.04739   1.4067E-03  2.7904E-03  3.1249E-03   63.246
   109   56   1.0447   0.0000  -0.1896  0.04739   2.2669E-03 -1.8535E-04  2.2745E-03   -4.674
   110   56   1.0447   0.0000  -0.1422  0.04739   5.5208E-03 -4.4899E-04  5.5390E-03   -4.649
   111   56   1.0447   0.0000  -0.0948  0.04739   7.8714E-03 -6.3777E-04  7.8972E-03   -4.632
   112   56   1.0447   0.0000  -0.0474  0.04739   9.3378E-03 -7.5496E-04  9.3683E-03   -4.622
   113   56   1.0447   0.0000   0.0000  0.04739   9.8371E-03 -7.9477E-04  9.8691E-03   -4.619
   114   56   1.0447   0.0000   0.0474  0.04739   9.3378E-03 -7.5496E-04  9.3683E-03   -4.622
   115   56   1.0447   0.0000   0.0948  0.04739   7.8714E-03 -6.3777E-04  7.8972E-03   -4.632
   116   56   1.0447   0.0000   0.1422  0.04739   5.5208E-03 -4.4899E-04  5.5390E-03   -4.649
   117   56   1.0447   0.0000   0.1896  0.04739   2.2669E-03 -1.8535E-04  2.2745E-03   -4.674
   118   57   1.2440   0.0000  -0.1896  0.04739  -1.0701E-03 -2.8492E-03  3.0436E-03 -110.586
   119   57   1.2440   0.0000  -0.1422  0.04739  -2.6280E-03 -6.9431E-03  7.4238E-03 -110.732
   120   57   1.2440   0.0000  -0.0948  0.04739  -3.7712E-03 -9.9038E-03  1.0597E-02 -110.846
   121   57   1.2440   0.0000  -0.0474  0.04739  -4.4914E-03 -1.1752E-02  1.2581E-02 -110.916
   122   57   1.2440   0.0000   0.0000  0.04739  -4.7379E-03 -1.2381E-02  1.3257E-02 -110.940
   123   57   1.2440   0.0000   0.0474  0.04739  -4.4914E-03 -1.1752E-02  1.2581E-02 -110.916
   124   57   1.2440   0.0000   0.0948  0.04739  -3.7712E-03 -9.9038E-03  1.0597E-02 -110.846
   125   57   1.2440   0.0000   0.1422  0.04739  -2.6280E-03 -6.9431E-03  7.4238E-03 -110.732
   126   57   1.2440   0.0000   0.1896  0.04739  -1.0701E-03 -2.8492E-03  3.0436E-03 -110.586



                                        - - - POWER BUDGET - - -

                                           INPUT POWER   = 2.7749E-02 WATTS
                                           RADIATED POWER= 2.7749E-02 WATTS
                                           STRUCTURE LOSS= 0.0000E+00 WATTS
                                           NETWORK LOSS  = 0.0000E+00 WATTS
                                           EFFICIENCY    = 100.00 PERCENT



                                                - - - RADIATION PATTERNS - - -

  - - ANGLES - -           - POWER GAINS -       - - - POLARIZATION - - -    - - - E(THETA) - - -    - - - E(PHI) - - -
  THETA     PHI        VERT.   HOR.    TOTAL      AXIAL     TILT   SENSE     MAGNITUDE    PHASE      MAGNITUDE    PHASE 
 DEGREES  DEGREES       DB      DB      DB        RATIO     DEG.              VOLTS/M    DEGREES      VOLTS/M    DEGREES
   90.00     0.00     8.65     8.65   11.659    0.98358   -45.00  LEFT      3.49141E+00   138.64    3.49141E+00  -130.41
   90.00     1.00     8.65     8.64   11.655    0.98335   -44.64  LEFT      3.49002E+00   138.61    3.48929E+00  -130.43
   90.00     2.00     8.64     8.63   11.642    0.98265   -43.62  LEFT      3.48586E+00   138.50    3.48292E+00  -130.49
   90.00     3.00     8.62     8.60   11.620    0.98144   -42.10  LEFT      3.47892E+00   138.33    3.47233E+00  -130.60
   90.00     4.00     8.59     8.56   11.589    0.97968   -40.28  LEFT      3.46919E+00   138.09    3.45752E+00  -130.75
   90.00     5.00     8.56     8.52   11.550    0.97732   -38.37  LEFT      3.45667E+00   137.77    3.43853E+00  -130.95
   90.00     6.00     8.52     8.46   11.501    0.97434   -36.52  LEFT      3.44136E+00   137.39    3.41537E+00  -131.19
   90.00     7.00     8.48     8.39   11.443    0.97072   -34.84  LEFT      3.42323E+00   136.94    3.38808E+00  -131.47
   90.00     8.00     8.42     8.31   11.377    0.96648   -33.35  LEFT      3.40227E+00   136.42    3.35672E+00  -131.79
   90.00     9.00     8.36     8.22   11.300    0.96161   -32.08  LEFT      3.37848E+00   135.83    3.32134E+00  -132.16
   90.00    10.00     8.29     8.11   11.214    0.95614   -30.99  LEFT      3.35184E+00   135.16    3.28198E+00  -132.57
   90.00    11.00     8.22     8.00   11.119    0.95008   -30.07  LEFT      3.32233E+00   134.44    3.23873E+00  -133.02
   90.00    12.00     8.13     7.87   11.013    0.94345   -29.28  LEFT      3.28994E+00   133.64    3.19164E+00  -133.52
   90.00    13.00     8.04     7.73   10.898    0.93626   -28.62  LEFT      3.25465E+00   132.77    3.14082E+00  -134.06
   90.00    14.00     7.94     7.58   10.771    0.92854   -28.05  LEFT      3.21646E+00   131.83    3.08635E+00  -134.64
   90.00    15.00     7.82     7.41   10.634    0.92030   -27.57  LEFT      3.17534E+00   130.83    3.02832E+00  -135.27
   90.00    16.00     7.70     7.23   10.486    0.91155   -27.15  LEFT      3.13130E+00   129.75    2.96686E+00  -135.94
   90.00    17.00     7.57     7.04   10.326    0.90233   -26.78  LEFT      3.08432E+00   128.61    2.90207E+00  -136.65
   90.00    18.00     7.43     6.84   10.154    0.89265   -26.46  LEFT      3.03439E+00   127.40    2.83409E+00  -137.41
   90.00    19.00     7.28     6.62    9.970    0.88252   -26.17  LEFT      2.98152E+00   126.12    2.76305E+00  -138.21
   90.00    20.00     7.11     6.38    9.773    0.87197   -25.92  LEFT      2.92571E+00   124.77    2.68910E+00  -139.06
   90.00    21.00     6.94     6.13    9.563    0.86101   -25.69  LEFT      2.86696E+00   123.36    2.61239E+00  -139.95
   90.00    22.00     6.75     5.86    9.338    0.84967   -25.48  LEFT      2.80530E+00   121.88    2.53309E+00  -140.88
   90.00    23.00     6.55     5.58    9.099    0.83797   -25.29  LEFT      2.74074E+00   120.33    2.45137E+00  -141.86
   90.00    24.00     6.33     5.27    8.845    0.82591   -25.11  LEFT      2.67331E+00   118.71    2.36742E+00  -142.88
   90.00    25.00     6.10     4.95    8.574    0.81353   -24.94  LEFT      2.60304E+00   117.02    2.28143E+00  -143.95
   90.00    26.00     5.85     4.61    8.286    0.80085   -24.78  LEFT      2.52997E+00   115.27    2.19361E+00  -145.06
   90.00    27.00     5.59     4.25    7.980    0.78788   -24.64  LEFT      2.45417E+00   113.45    2.10416E+00  -146.21
   90.00    28.00     5.30     3.87    7.655    0.77465   -24.49  LEFT      2.37568E+00   111.56    2.01329E+00  -147.41
   90.00    29.00     5.00     3.46    7.310    0.76117   -24.36  LEFT      2.29458E+00   109.61    1.92125E+00  -148.66
   90.00    30.00     4.68     3.03    6.943    0.74747   -24.22  LEFT      2.21096E+00   107.59    1.82825E+00  -149.96
   90.00    31.00     4.34     2.57    6.553    0.73358   -24.09  LEFT      2.12490E+00   105.50    1.73455E+00  -151.30
   90.00    32.00     3.97     2.09    6.138    0.71950   -23.96  LEFT      2.03650E+00   103.34    1.64038E+00  -152.69
   90.00    33.00     3.57     1.57    5.696    0.70526   -23.83  LEFT      1.94589E+00   101.12    1.54599E+00  -154.13
   90.00    34.00     3.15     1.03    5.225    0.69090   -23.70  LEFT      1.85319E+00    98.82    1.45164E+00  -155.62
   90.00    35.00     2.69     0.44    4.722    0.67643   -23.57  LEFT      1.75854E+00    96.46    1.35758E+00  -157.16
   90.00    36.00     2.20    -0.18    4.184    0.66187   -23.44  LEFT      1.66210E+00    94.03    1.26407E+00  -158.76
   90.00    37.00     1.67    -0.84    3.608    0.64727   -23.31  LEFT      1.56403E+00    91.53    1.17137E+00  -160.41
   90.00    38.00     1.10    -1.54    2.988    0.63264   -23.17  LEFT      1.46451E+00    88.95    1.07973E+00  -162.12
   90.00    39.00     0.48    -2.30    2.320    0.61803   -23.03  LEFT      1.36373E+00    86.30    9.89413E-01  -163.90
   90.00    40.00    -0.19    -3.12    1.598    0.60348   -22.89  LEFT      1.26189E+00    83.56    9.00670E-01  -165.75
   90.00    41.00    -0.93    -4.00    0.812    0.58904   -22.75  LEFT      1.15921E+00    80.75    8.13748E-01  -167.68
   90.00    42.00    -1.74    -4.96   -0.046    0.57478   -22.61  LEFT      1.05591E+00    77.84    7.28891E-01  -169.70
   90.00    43.00    -2.64    -6.00   -0.990    0.56080   -22.47  LEFT      9.52242E-01    74.83    6.46335E-01  -171.83
   90.00    44.00    -3.64    -7.15   -2.038    0.54720   -22.32  LEFT      8.48449E-01    71.70    5.66310E-01  -174.08
   90.00    45.00    -4.77    -8.42   -3.213    0.53417   -22.18  LEFT      7.44796E-01    68.43    4.89040E-01  -176.51
   90.00    46.00    -6.07    -9.86   -4.550    0.52200   -22.05  LEFT      6.41560E-01    64.97    4.14742E-01  -179.15
   90.00    47.00    -7.58   -11.49   -6.098    0.51115   -21.95  LEFT      5.39038E-01    61.27    3.43633E-01   177.88
   90.00    48.00    -9.39   -13.39   -7.936    0.50247   -21.89  LEFT      4.37553E-01    57.18    2.75944E-01   174.42
   90.00    49.00   -11.65   -15.69  -10.202    0.49770   -21.96  LEFT      3.37491E-01    52.43    2.11946E-01   170.10
   90.00    50.00   -14.63   -18.57  -13.156    0.50089   -22.39  LEFT      2.39408E-01    46.30    1.52059E-01   164.07
   90.00    51.00   -19.01   -22.45  -17.388    0.52266   -24.35  LEFT      1.44568E-01    36.21    9.72621E-02   153.79
   90.00    52.00   -26.59   -27.94  -24.206    0.52719   -37.08  LEFT      6.03777E-02     5.19    5.16844E-02   128.57
   90.00    53.00   -25.82   -30.36  -24.513    0.19660   -29.41  LEFT      6.59752E-02   -92.87    3.91537E-02    61.58
   90.00    54.00   -18.86   -25.33  -17.975    0.26075   -21.80  LEFT      1.47112E-01  -119.63    6.98618E-02    21.31
   90.00    55.00   -14.89   -21.56  -14.042    0.28358   -20.33  LEFT      2.32318E-01  -129.29    1.07811E-01     7.29
   90.00    56.00   -12.23   -19.04  -11.404    0.28698   -19.69  LEFT      3.15687E-01  -135.53    1.44070E-01    -0.12
   90.00    57.00   -10.25   -17.25   -9.463    0.28269   -19.25  LEFT      3.96108E-01  -140.59    1.77120E-01    -5.21
   90.00    58.00    -8.71   -15.91   -7.954    0.27473   -18.87  LEFT      4.73085E-01  -145.12    2.06560E-01    -9.27
   90.00    59.00    -7.46   -14.89   -6.741    0.26481   -18.51  LEFT      5.46285E-01  -149.38    2.32270E-01   -12.79
   90.00    60.00    -6.43   -14.11   -5.743    0.25377   -18.15  LEFT      6.15438E-01  -153.49    2.54243E-01   -15.99
   90.00    61.00    -5.56   -13.50   -4.910    0.24206   -17.78  LEFT      6.80314E-01  -157.52    2.72526E-01   -19.01
   90.00    62.00    -4.82   -13.05   -4.210    0.22996   -17.40  LEFT      7.40712E-01  -161.51    2.87204E-01   -21.90
   90.00    63.00    -4.19   -12.72   -3.617    0.21766   -17.01  LEFT      7.96452E-01  -165.48    2.98390E-01   -24.72
   90.00    64.00    -3.65   -12.49   -3.116    0.20527   -16.61  LEFT      8.47381E-01  -169.44    3.06219E-01   -27.48
   90.00    65.00    -3.19   -12.36   -2.694    0.19288   -16.19  LEFT      8.93368E-01  -173.41    3.10846E-01   -30.21
   90.00    66.00    -2.80   -12.32   -2.341    0.18057   -15.75  LEFT      9.34307E-01  -177.38    3.12444E-01   -32.93
   90.00    67.00    -2.47   -12.35   -2.049    0.16838   -15.29  LEFT      9.70118E-01   178.63    3.11201E-01   -35.63
   90.00    68.00    -2.20   -12.46   -1.813    0.15638   -14.82  LEFT      1.00074E+00   174.62    3.07318E-01   -38.33
   90.00    69.00    -1.99   -12.64   -1.628    0.14459   -14.33  LEFT      1.02616E+00   170.59    3.01008E-01   -41.03
   90.00    70.00    -1.82   -12.89   -1.491    0.13306   -13.82  LEFT      1.04635E+00   166.54    2.92491E-01   -43.74
   90.00    71.00    -1.69   -13.21   -1.398    0.12182   -13.29  LEFT      1.06136E+00   162.47    2.81998E-01   -46.45
   90.00    72.00    -1.61   -13.59   -1.346    0.11090   -12.74  LEFT      1.07123E+00   158.38    2.69761E-01   -49.17
   90.00    73.00    -1.57   -14.05   -1.335    0.10033   -12.18  LEFT      1.07603E+00   154.27    2.56020E-01   -51.91
   90.00    74.00    -1.58   -14.57   -1.363    0.09014   -11.59  LEFT      1.07587E+00   150.13    2.41012E-01   -54.65
   90.00    75.00    -1.62   -15.17   -1.429    0.08036   -10.99  LEFT      1.07088E+00   145.98    2.24977E-01   -57.41
   90.00    76.00    -1.69   -15.84   -1.531    0.07102   -10.36  LEFT      1.06122E+00   141.80    2.08148E-01   -60.17
   90.00    77.00    -1.81   -16.60   -1.670    0.06215    -9.72  LEFT      1.04706E+00   137.61    1.90756E-01   -62.95
   90.00    78.00    -1.97   -17.45   -1.845    0.05378    -9.06  LEFT      1.02859E+00   133.39    1.73027E-01   -65.74
   90.00    79.00    -2.16   -18.39   -2.057    0.04592    -8.38  LEFT      1.00605E+00   129.17    1.55174E-01   -68.54
   90.00    80.00    -2.39   -19.45   -2.305    0.03861    -7.68  LEFT      9.79672E-01   124.93    1.37406E-01   -71.35
   90.00    81.00    -2.66   -20.63   -2.591    0.03187    -6.97  LEFT      9.49709E-01   120.68    1.19915E-01   -74.16
   90.00    82.00    -2.97   -21.96   -2.915    0.02573    -6.24  LEFT      9.16436E-01   116.43    1.02885E-01   -76.98
   90.00    83.00    -3.32   -23.47   -3.278    0.02020    -5.49  LEFT      8.80140E-01   112.17    8.64823E-02   -79.80
   90.00    84.00    -3.71   -25.20   -3.683    0.01530    -4.74  LEFT      8.41116E-01   107.91    7.08602E-02   -82.63
   90.00    85.00    -4.15   -27.22   -4.131    0.01106    -3.97  LEFT      7.99672E-01   103.66    5.61555E-02   -85.44
   90.00    86.00    -4.64   -29.65   -4.626    0.00748    -3.19  LEFT      7.56120E-01    99.43    4.24886E-02   -88.25
   90.00    87.00    -5.18   -32.68   -5.169    0.00458    -2.40  LEFT      7.10779E-01    95.22    2.99626E-02   -91.04
   90.00    88.00    -5.77   -36.79   -5.765    0.00237    -1.60  LEFT      6.63968E-01    91.04    1.86633E-02   -93.80
   90.00    89.00    -6.42   -43.46   -6.418    0.00084    -0.80  LEFT      6.16009E-01    86.91    8.65886E-03   -96.52
   90.00    90.00    -7.14  -999.99   -7.136    0.00000     0.00  LINEAR    5.67223E-01    82.86    2.33151E-12    80.81
   90.00    91.00    -7.93   -44.97   -7.925    0.00017     0.81  RIGHT     5.17929E-01    78.90    7.28015E-03    78.22
   90.00    92.00    -8.80   -39.82   -8.794    0.00033     1.61  LEFT      4.68446E-01    75.08    1.31657E-02    75.74
   90.00    93.00    -9.76   -37.27   -9.757    0.00145     2.41  LEFT      4.19092E-01    71.44    1.76577E-02    73.42
   90.00    94.00   -10.84   -35.86  -10.829    0.00316     3.21  LEFT      3.70193E-01    68.08    2.07745E-02    71.32
   90.00    95.00   -12.05   -35.15  -12.030    0.00540     3.99  LEFT      3.22088E-01    65.10    2.25519E-02    69.54
   90.00    96.00   -13.42   -34.96  -13.389    0.00806     4.77  LEFT      2.75155E-01    62.71    2.30455E-02    68.27
   90.00    97.00   -14.98   -35.23  -14.941    0.01100     5.51  LEFT      2.29853E-01    61.21    2.23355E-02    67.78
   90.00    98.00   -16.78   -35.96  -16.730    0.01403     6.22  LEFT      1.86824E-01    61.20    2.05403E-02    68.62
   90.00    99.00   -18.86   -37.18  -18.794    0.01696     6.85  LEFT      1.47128E-01    63.73    1.78529E-02    71.88
   90.00   100.00   -21.16   -38.89  -21.091    0.02012     7.31  LEFT      1.12819E-01    70.83    1.46496E-02    79.89
   90.00   101.00   -23.31   -40.76  -23.230    0.02675     7.48  LEFT      8.81445E-02    85.51    1.18160E-02    97.22
   90.00   102.00   -24.18   -41.18  -24.090    0.04355     7.64  LEFT      7.97598E-02   107.70    1.12539E-02   126.01
   90.00   103.00   -23.14   -39.00  -23.026    0.06414     8.41  LEFT      8.98809E-02   128.00    1.44787E-02   152.01
   90.00   104.00   -21.25   -35.96  -21.101    0.07863     9.43  LEFT      1.11756E-01   139.77    2.05394E-02   165.84
   90.00   105.00   -19.39   -33.21  -19.209    0.08943    10.37  LEFT      1.38452E-01   144.86    2.81892E-02   171.85
   90.00   106.00   -17.78   -30.89  -17.577    0.09936    11.18  LEFT      1.66457E-01   146.11    3.68246E-02   173.92
   90.00   107.00   -16.45   -28.93  -16.207    0.10945    11.92  LEFT      1.94219E-01   145.16    4.61552E-02   173.90
   90.00   108.00   -15.32   -27.25  -15.052    0.11997    12.59  LEFT      2.21025E-01   142.88    5.60101E-02   172.66
   90.00   109.00   -14.37   -25.78  -14.070    0.13100    13.22  LEFT      2.46537E-01   139.75    6.62694E-02   170.66
   90.00   110.00   -13.56   -24.50  -13.228    0.14252    13.81  LEFT      2.70597E-01   136.04    7.68398E-02   168.15
   90.00   111.00   -12.87   -23.36  -12.498    0.15451    14.37  LEFT      2.93145E-01   131.91    8.76444E-02   165.27
   90.00   112.00   -12.27   -22.33  -11.859    0.16692    14.91  LEFT      3.14182E-01   127.48    9.86190E-02   162.11
   90.00   113.00   -11.74   -21.41  -11.297    0.17974    15.41  LEFT      3.33741E-01   122.81    1.09709E-01   158.75
   90.00   114.00   -11.28   -20.56  -10.799    0.19292    15.90  LEFT      3.51883E-01   117.97    1.20870E-01   155.23
   90.00   115.00   -10.88   -19.80  -10.354    0.20643    16.36  LEFT      3.68681E-01   112.99    1.32064E-01   151.57
   90.00   116.00   -10.52   -19.09   -9.954    0.22024    16.80  LEFT      3.84220E-01   107.89    1.43261E-01   147.81
   90.00   117.00   -10.20   -18.44   -9.593    0.23433    17.22  LEFT      3.98590E-01   102.72    1.54437E-01   143.97
   90.00   118.00    -9.92   -17.83   -9.265    0.24867    17.61  LEFT      4.11882E-01    97.47    1.65575E-01   140.06
   90.00   119.00    -9.66   -17.27   -8.965    0.26323    17.99  LEFT      4.24184E-01    92.18    1.76661E-01   136.09
   90.00   120.00    -9.43   -16.74   -8.690    0.27798    18.35  LEFT      4.35583E-01    86.85    1.87685E-01   132.09
   90.00   121.00    -9.22   -16.25   -8.436    0.29291    18.68  LEFT      4.46158E-01    81.51    1.98639E-01   128.07
   90.00   122.00    -9.03   -15.79   -8.200    0.30800    19.01  LEFT      4.55980E-01    76.17    2.09517E-01   124.03
   90.00   123.00    -8.86   -15.35   -7.981    0.32322    19.31  LEFT      4.65112E-01    70.84    2.20311E-01   119.99
   90.00   124.00    -8.70   -14.94   -7.776    0.33855    19.60  LEFT      4.73606E-01    65.52    2.31015E-01   115.95
   90.00   125.00    -8.56   -14.55   -7.584    0.35398    19.87  LEFT      4.81505E-01    60.24    2.41621E-01   111.93
   90.00   126.00    -8.43   -14.18   -7.403    0.36948    20.13  LEFT      4.88843E-01    55.00    2.52118E-01   107.94
   90.00   127.00    -8.31   -13.83   -7.234    0.38506    20.38  LEFT      4.95642E-01    49.81    2.62491E-01   103.99
   90.00   128.00    -8.20   -13.50   -7.075    0.40069    20.61  LEFT      5.01915E-01    44.68    2.72723E-01   100.07
   90.00   129.00    -8.10   -13.18   -6.926    0.41635    20.83  LEFT      5.07670E-01    39.62    2.82795E-01    96.20
   90.00   130.00    -8.01   -12.88   -6.786    0.43205    21.04  LEFT      5.12906E-01    34.63    2.92683E-01    92.39
   90.00   131.00    -7.93   -12.60   -6.656    0.44777    21.24  LEFT      5.17615E-01    29.72    3.02359E-01    88.64
   90.00   132.00    -7.86   -12.33   -6.535    0.46350    21.43  LEFT      5.21787E-01    24.90    3.11795E-01    84.95
   90.00   133.00    -7.80   -12.08   -6.424    0.47923    21.61  LEFT      5.25408E-01    20.16    3.20957E-01    81.33
   90.00   134.00    -7.75   -11.85   -6.322    0.49496    21.79  LEFT      5.28462E-01    15.52    3.29812E-01    77.79
   90.00   135.00    -7.71   -11.62   -6.230    0.51067    21.95  LEFT      5.30933E-01    10.97    3.38325E-01    74.32
   90.00   136.00    -7.68   -11.42   -6.148    0.52635    22.12  LEFT      5.32805E-01     6.52    3.46460E-01    70.92
   90.00   137.00    -7.66   -11.23   -6.076    0.54200    22.27  LEFT      5.34066E-01     2.16    3.54182E-01    67.60
   90.00   138.00    -7.65   -11.05   -6.014    0.55761    22.42  LEFT      5.34702E-01    -2.10    3.61456E-01    64.36
   90.00   139.00    -7.65   -10.89   -5.963    0.57317    22.57  LEFT      5.34707E-01    -6.25    3.68251E-01    61.20
   90.00   140.00    -7.66   -10.74   -5.922    0.58867    22.71  LEFT      5.34074E-01   -10.31    3.74535E-01    58.12
   90.00   141.00    -7.68   -10.61   -5.892    0.60409    22.85  LEFT      5.32805E-01   -14.27    3.80280E-01    55.12
   90.00   142.00    -7.71   -10.49   -5.872    0.61943    22.98  LEFT      5.30903E-01   -18.13    3.85463E-01    52.19
   90.00   143.00    -7.75   -10.39   -5.863    0.63468    23.11  LEFT      5.28378E-01   -21.90    3.90064E-01    49.34
   90.00   144.00    -7.80   -10.30   -5.865    0.64982    23.24  LEFT      5.25242E-01   -25.56    3.94066E-01    46.57
   90.00   145.00    -7.87   -10.23   -5.877    0.66483    23.37  LEFT      5.21513E-01   -29.14    3.97458E-01    43.87
   90.00   146.00    -7.94   -10.16   -5.900    0.67972    23.50  LEFT      5.17215E-01   -32.62    4.00234E-01    41.24
   90.00   147.00    -8.02   -10.12   -5.933    0.69446    23.63  LEFT      5.12374E-01   -36.00    4.02392E-01    38.69
   90.00   148.00    -8.11   -10.08   -5.976    0.70904    23.76  LEFT      5.07021E-01   -39.29    4.03936E-01    36.21
   90.00   149.00    -8.21   -10.06   -6.029    0.72344    23.89  LEFT      5.01191E-01   -42.50    4.04875E-01    33.79
   90.00   150.00    -8.32   -10.06   -6.092    0.73765    24.03  LEFT      4.94921E-01   -45.61    4.05221E-01    31.45
   90.00   151.00    -8.44   -10.06   -6.164    0.75165    24.16  LEFT      4.88253E-01   -48.64    4.04994E-01    29.17
   90.00   152.00    -8.56   -10.08   -6.245    0.76543    24.31  LEFT      4.81229E-01   -51.57    4.04215E-01    26.95
   90.00   153.00    -8.70   -10.11   -6.335    0.77896    24.45  LEFT      4.73896E-01   -54.43    4.02913E-01    24.80
   90.00   154.00    -8.84   -10.15   -6.432    0.79224    24.61  LEFT      4.66300E-01   -57.19    4.01119E-01    22.72
   90.00   155.00    -8.98   -10.19   -6.537    0.80524    24.77  LEFT      4.58490E-01   -59.88    3.98868E-01    20.69
   90.00   156.00    -9.14   -10.25   -6.649    0.81795    24.94  LEFT      4.50516E-01   -62.47    3.96198E-01    18.73
   90.00   157.00    -9.29   -10.32   -6.767    0.83034    25.12  LEFT      4.42426E-01   -64.99    3.93150E-01    16.83
   90.00   158.00    -9.46   -10.39   -6.890    0.84240    25.32  LEFT      4.34271E-01   -67.42    3.89768E-01    14.99
   90.00   159.00    -9.62   -10.48   -7.018    0.85411    25.54  LEFT      4.26100E-01   -69.77    3.86098E-01    13.21
   90.00   160.00    -9.79   -10.57   -7.149    0.86544    25.77  LEFT      4.17962E-01   -72.03    3.82187E-01    11.49
   90.00   161.00    -9.96   -10.66   -7.284    0.87639    26.03  LEFT      4.09905E-01   -74.21    3.78082E-01     9.84
   90.00   162.00   -10.13   -10.76   -7.421    0.88693    26.32  LEFT      4.01975E-01   -76.30    3.73833E-01     8.24
   90.00   163.00   -10.30   -10.86   -7.558    0.89703    26.65  LEFT      3.94217E-01   -78.30    3.69488E-01     6.71
   90.00   164.00   -10.46   -10.96   -7.696    0.90668    27.01  LEFT      3.86674E-01   -80.21    3.65096E-01     5.25
   90.00   165.00   -10.63   -11.07   -7.833    0.91585    27.43  LEFT      3.79387E-01   -82.03    3.60704E-01     3.85
   90.00   166.00   -10.79   -11.17   -7.968    0.92453    27.91  LEFT      3.72394E-01   -83.76    3.56359E-01     2.52
   90.00   167.00   -10.95   -11.28   -8.099    0.93270    28.47  LEFT      3.65732E-01   -85.39    3.52105E-01     1.26
   90.00   168.00   -11.10   -11.38   -8.227    0.94032    29.12  LEFT      3.59434E-01   -86.92    3.47986E-01     0.08
   90.00   169.00   -11.24   -11.48   -8.349    0.94738    29.88  LEFT      3.53530E-01   -88.35    3.44041E-01    -1.03
   90.00   170.00   -11.38   -11.57   -8.464    0.95385    30.77  LEFT      3.48050E-01   -89.67    3.40308E-01    -2.05
   90.00   171.00   -11.50   -11.66   -8.573    0.95972    31.84  LEFT      3.43019E-01   -90.88    3.36823E-01    -2.99
   90.00   172.00   -11.62   -11.75   -8.673    0.96496    33.09  LEFT      3.38459E-01   -91.98    3.33618E-01    -3.85
   90.00   173.00   -11.73   -11.82   -8.763    0.96955    34.55  LEFT      3.34390E-01   -92.96    3.30722E-01    -4.61
   90.00   174.00   -11.82   -11.89   -8.844    0.97347    36.23  LEFT      3.30830E-01   -93.81    3.28159E-01    -5.28
   90.00   175.00   -11.90   -11.95   -8.913    0.97672    38.09  LEFT      3.27793E-01   -94.54    3.25953E-01    -5.85
   90.00   176.00   -11.97   -12.00   -8.971    0.97930    40.04  LEFT      3.25292E-01   -95.15    3.24122E-01    -6.33
   90.00   177.00   -12.02   -12.04   -9.016    0.98123    41.93  LEFT      3.23337E-01   -95.62    3.22682E-01    -6.70
   90.00   178.00   -12.06   -12.06   -9.049    0.98256    43.53  LEFT      3.21935E-01   -95.96    3.21645E-01    -6.96
   90.00   179.00   -12.08   -12.08   -9.069    0.98333    44.62  LEFT      3.21092E-01   -96.16    3.21020E-01    -7.12
   90.00   180.00   -12.09   -12.09   -9.076    0.98358    45.00  LEFT      3.20811E-01   -96.23    3.20811E-01    -7.18


                                     - - - - NORMALIZED GAIN - - - -

                                           TOTAL GAIN
                                      NORMALIZATION FACTOR =    11.66 DB

    - - ANGLES - -      GAIN           - - ANGLES - -      GAIN           - - ANGLES - -      GAIN
    THETA     PHI        DB            THETA     PHI        DB            THETA     PHI        DB
   DEGREES  DEGREES                   DEGREES  DEGREES                   DEGREES  DEGREES
     90.00     0.00      0.00           90.00    61.00    -16.57           90.00   121.00    -20.10
     90.00     1.00      0.00           90.00    62.00    -15.87           90.00   122.00    -19.86
     90.00     2.00     -0.02           90.00    63.00    -15.28           90.00   123.00    -19.64
     90.00     3.00     -0.04           90.00    64.00    -14.78           90.00   124.00    -19.44
     90.00     4.00     -0.07           90.00    65.00    -14.35           90.00   125.00    -19.24
     90.00     5.00     -0.11           90.00    66.00    -14.00           90.00   126.00    -19.06
     90.00     6.00     -0.16           90.00    67.00    -13.71           90.00   127.00    -18.89
     90.00     7.00     -0.22           90.00    68.00    -13.47           90.00   128.00    -18.73
     90.00     8.00     -0.28           90.00    69.00    -13.29           90.00   129.00    -18.58
     90.00     9.00     -0.36           90.00    70.00    -13.15           90.00   130.00    -18.45
     90.00    10.00     -0.44           90.00    71.00    -13.06           90.00   131.00    -18.32
     90.00    11.00     -0.54           90.00    72.00    -13.01           90.00   132.00    -18.19
     90.00    12.00     -0.65           90.00    73.00    -12.99           90.00   133.00    -18.08
     90.00    13.00     -0.76           90.00    74.00    -13.02           90.00   134.00    -17.98
     90.00    14.00     -0.89           90.00    75.00    -13.09           90.00   135.00    -17.89
     90.00    15.00     -1.03           90.00    76.00    -13.19           90.00   136.00    -17.81
     90.00    16.00     -1.17           90.00    77.00    -13.33           90.00   137.00    -17.74
     90.00    17.00     -1.33           90.00    78.00    -13.50           90.00   138.00    -17.67
     90.00    18.00     -1.51           90.00    79.00    -13.72           90.00   139.00    -17.62
     90.00    19.00     -1.69           90.00    80.00    -13.96           90.00   140.00    -17.58
     90.00    20.00     -1.89           90.00    81.00    -14.25           90.00   141.00    -17.55
     90.00    21.00     -2.10           90.00    82.00    -14.57           90.00   142.00    -17.53
     90.00    22.00     -2.32           90.00    83.00    -14.94           90.00   143.00    -17.52
     90.00    23.00     -2.56           90.00    84.00    -15.34           90.00   144.00    -17.52
     90.00    24.00     -2.81           90.00    85.00    -15.79           90.00   145.00    -17.54
     90.00    25.00     -3.09           90.00    86.00    -16.28           90.00   146.00    -17.56
     90.00    26.00     -3.37           90.00    87.00    -16.83           90.00   147.00    -17.59
     90.00    27.00     -3.68           90.00    88.00    -17.42           90.00   148.00    -17.64
     90.00    28.00     -4.00           90.00    89.00    -18.08           90.00   149.00    -17.69
     90.00    29.00     -4.35           90.00    90.00    -18.80           90.00   150.00    -17.75
     90.00    30.00     -4.72           90.00    91.00    -19.58           90.00   151.00    -17.82
     90.00    31.00     -5.11           90.00    92.00    -20.45           90.00   152.00    -17.90
     90.00    32.00     -5.52           90.00    93.00    -21.42           90.00   153.00    -17.99
     90.00    33.00     -5.96           90.00    94.00    -22.49           90.00   154.00    -18.09
     90.00    34.00     -6.43           90.00    95.00    -23.69           90.00   155.00    -18.20
     90.00    35.00     -6.94           90.00    96.00    -25.05           90.00   156.00    -18.31
     90.00    36.00     -7.47           90.00    97.00    -26.60           90.00   157.00    -18.43
     90.00    37.00     -8.05           90.00    98.00    -28.39           90.00   158.00    -18.55
     90.00    38.00     -8.67           90.00    99.00    -30.45           90.00   159.00    -18.68
     90.00    39.00     -9.34           90.00   100.00    -32.75           90.00   160.00    -18.81
     90.00    40.00    -10.06           90.00   101.00    -34.89           90.00   161.00    -18.94
     90.00    41.00    -10.85           90.00   102.00    -35.75           90.00   162.00    -19.08
     90.00    42.00    -11.71           90.00   103.00    -34.69           90.00   163.00    -19.22
     90.00    43.00    -12.65           90.00   104.00    -32.76           90.00   164.00    -19.36
     90.00    44.00    -13.70           90.00   105.00    -30.87           90.00   165.00    -19.49
     90.00    45.00    -14.87           90.00   106.00    -29.24           90.00   166.00    -19.63
     90.00    46.00    -16.21           90.00   107.00    -27.87           90.00   167.00    -19.76
     90.00    47.00    -17.76           90.00   108.00    -26.71           90.00   168.00    -19.89
     90.00    48.00    -19.60           90.00   109.00    -25.73           90.00   169.00    -20.01
     90.00    49.00    -21.86           90.00   110.00    -24.89           90.00   170.00    -20.12
     90.00    50.00    -24.82           90.00   111.00    -24.16           90.00   171.00    -20.23
     90.00    51.00    -29.05           90.00   112.00    -23.52           90.00   172.00    -20.33
     90.00    52.00    -35.87           90.00   113.00    -22.96           90.00   173.00    -20.42
     90.00    53.00    -36.17           90.00   114.00    -22.46           90.00   174.00    -20.50
     90.00    54.00    -29.63           90.00   115.00    -22.01           90.00   175.00    -20.57
     90.00    55.00    -25.70           90.00   116.00    -21.61           90.00   176.00    -20.63
     90.00    56.00    -23.06           90.00   117.00    -21.25           90.00   177.00    -20.68
     90.00    57.00    -21.12           90.00   118.00    -20.92           90.00   178.00    -20.71
     90.00    58.00    -19.61           90.00   119.00    -20.62           90.00   179.00    -20.73
     90.00    59.00    -18.40           90.00   120.00    -20.35           90.00   180.00    -20.74
     90.00    60.00    -17.40




                                 - - - - - - FREQUENCY - - - - - -

                                    FREQUENCY= 1.4450E+02 MHZ
                                    WAVELENGTH= 2.0747E+00 METERS




                    APPROXIMATE INTEGRATION EMPLOYED FOR SEGMENTS MORE THAN   1.000 WAVELENGTHS APART



                               - - - STRUCTURE IMPEDANCE LOADING - - -

                                   THIS STRUCTURE IS NOT LOADED



                                  - - - ANTENNA ENVIRONMENT - - -

                                            FREE SPACE



                                - - - MATRIX TIMING - - -

                        FILL=    0.090 SEC.,  FACTOR=    0.020 SEC.



                                          - - - ANTENNA INPUT PARAMETERS - - -

   TAG   SEG.    VOLTAGE (VOLTS)         CURRENT (AMPS)         IMPEDANCE (OHMS)        ADMITTANCE (MHOS)      POWER
   NO.   NO.    REAL        IMAG.       REAL        IMAG.       REAL        IMAG.       REAL        IMAG.     (WATTS)
     2    14 1.00000E+00 0.00000E+00 2.97202E-02 2.01980E-03 3.34925E+01-2.27617E+00 2.97202E-02 2.01980E-03 1.48601E-02
    52    77 1.00000E+00 0.00000E+00 2.97202E-02 2.01980E-03 3.34925E+01-2.27617E+00 2.97202E-02 2.01980E-03 1.48601E-02



                             - - - CURRENTS AND LOCATION - - -

                                 DISTANCES IN WAVELENGTHS


  SEG.  TAG    COORD. OF SEG. CENTER     SEG.            - - - CURRENT (AMPS) - - -
  NO.   NO.     X        Y        Z      LENGTH     REAL        IMAG.       MAG.        PHASE
     1    1  -0.2000  -0.2179   0.0000  0.05446  -1.9835E-03  1.5815E-03  2.5368E-03  141.433
     2    1  -0.2000  -0.1634   0.0000  0.05446  -5.0464E-03  3.9628E-03  6.4164E-03  141.858
     3    1  -0.2000  -0.1089   0.0000  0.05446  -7.4053E-03  5.7464E-03  9.3734E-03  142.189
     4    1  -0.2000  -0.0545   0.0000  0.05446  -8.9328E-03  6.8808E-03  1.1276E-02  142.394
     5    1  -0.2000   0.0000   0.0000  0.05446  -9.4624E-03  7.2705E-03  1.1933E-02  142.463
     6    1  -0.2000   0.0545   0.0000  0.05446  -8.9328E-03  6.8808E-03  1.1276E-02  142.394
     7    1  -0.2000   0.1089   0.0000  0.05446  -7.4053E-03  5.7464E-03  9.3734E-03  142.189
     8    1  -0.2000   0.1634   0.0000  0.05446  -5.0464E-03  3.9628E-03  6.4164E-03  141.858
     9    1  -0.2000   0.2179   0.0000  0.05446  -1.9835E-03  1.5815E-03  2.5368E-03  141.433
    10    2   0.0000  -0.2067   0.0000  0.05168   6.5470E-03  6.7667E-05  6.5473E-03    0.592
    11    2   0.0000  -0.1550   0.0000  0.05168   1.6289E-02  3.4379E-04  1.6293E-02    1.209
    12    2   0.0000  -0.1034   0.0000  0.05168   2.3540E-02  7.9401E-04  2.3554E-02    1.932
    13    2   0.0000  -0.0517   0.0000  0.05168   2.8141E-02  1.4104E-03  2.8176E-02    2.869
    14    2   0.0000   0.0000   0.0000  0.05168   2.9720E-02  2.0198E-03  2.9789E-02    3.888
    15    2   0.0000   0.0517   0.0000  0.05168   2.8141E-02  1.4104E-03  2.8176E-02    2.869
    16    2   0.0000   0.1034   0.0000  0.05168   2.3540E-02  7.9401E-04  2.3554E-02    1.932
    17    2   0.0000   0.1550   0.0000  0.05168   1.6289E-02  3.4379E-04  1.6293E-02    1.209
    18    2   0.0000   0.2067   0.0000  0.05168   6.5470E-03  6.7667E-05  6.5473E-03    0.592
    19    3   0.2000  -0.1931   0.0000  0.04828  -2.9190E-03 -3.2295E-03  4.3532E-03 -132.109
    20    3   0.2000  -0.1448   0.0000  0.04828  -7.1700E-03 -7.9191E-03  1.0683E-02 -132.158
    21    3   0.2000  -0.0966   0.0000  0.04828  -1.0284E-02 -1.1344E-02  1.5311E-02 -132.193
    22    3   0.2000  -0.0483   0.0000  0.04828  -1.2242E-02 -1.3495E-02  1.8220E-02 -132.213
    23    3   0.2000   0.0000   0.0000  0.04828  -1.2911E-02 -1.4229E-02  1.9214E-02 -132.220
    24    3   0.2000   0.0483   0.0000  0.04828  -1.2242E-02 -1.3495E-02  1.8220E-02 -132.213
    25    3   0.2000   0.0966   0.0000  0.04828  -1.0284E-02 -1.1344E-02  1.5311E-02 -132.193
    26    3   0.2000   0.1448   0.0000  0.04828  -7.1700E-03 -7.9191E-03  1.0683E-02 -132.158
    27    3   0.2000   0.1931   0.0000  0.04828  -2.9190E-03 -3.2295E-03  4.3532E-03 -132.109
    28    4   0.4001  -0.1902   0.0000  0.04756  -2.3143E-03  1.1308E-03  2.5758E-03  153.959
    29    4   0.4001  -0.1427   0.0000  0.04756  -5.6451E-03  2.7591E-03  6.2833E-03  153.952
    30    4   0.4001  -0.0951   0.0000  0.04756  -8.0577E-03  3.9396E-03  8.9692E-03  153.945
    31    4   0.4001  -0.0476   0.0000  0.04756  -9.5650E-03  4.6776E-03  1.0648E-02  153.940
    32    4   0.4001   0.0000   0.0000  0.04756  -1.0079E-02  4.9291E-03  1.1219E-02  153.938
    33    4   0.4001   0.0476   0.0000  0.04756  -9.5650E-03  4.6776E-03  1.0648E-02  153.940
    34    4   0.4001   0.0951   0.0000  0.04756  -8.0577E-03  3.9396E-03  8.9692E-03  153.945
    35    4   0.4001   0.1427   0.0000  0.04756  -5.6451E-03  2.7591E-03  6.2833E-03  153.952
    36    4   0.4001   0.1902   0.0000  0.04756  -2.3143E-03  1.1308E-03  2.5758E-03  153.959
    37    5   0.6001  -0.1902   0.0000  0.04756   1.9899E-03  2.7162E-03  3.3671E-03   53.773
    38    5   0.6001  -0.1427   0.0000  0.04756   4.8498E-03  6.6243E-03  8.2098E-03   53.791
    39    5   0.6001  -0.0951   0.0000  0.04756   6.9188E-03  9.4543E-03  1.1716E-02   53.803
    40    5   0.6001  -0.0476   0.0000  0.04756   8.2108E-03  1.1222E-02  1.3905E-02   53.809
    41    5   0.6001   0.0000   0.0000  0.04756   8.6509E-03  1.1825E-02  1.4651E-02   53.811
    42    5   0.6001   0.0476   0.0000  0.04756   8.2108E-03  1.1222E-02  1.3905E-02   53.809
    43    5   0.6001   0.0951   0.0000  0.04756   6.9188E-03  9.4543E-03  1.1716E-02   53.803
    44    5   0.6001   0.1427   0.0000  0.04756   4.8498E-03  6.6243E-03  8.2098E-03   53.791
    45    5   0.6001   0.1902   0.0000  0.04756   1.9899E-03  2.7162E-03  3.3671E-03   53.773
    46    6   0.8001  -0.1902   0.0000  0.04756   2.4173E-03 -5.6675E-04  2.4829E-03  -13.195
    47    6   0.8001  -0.1427   0.0000  0.04756   5.8909E-03 -1.3784E-03  6.0500E-03  -13.170
    48    6   0.8001  -0.0951   0.0000  0.04756   8.4030E-03 -1.9636E-03  8.6294E-03  -13.152
    49    6   0.8001  -0.0476   0.0000  0.04756   9.9713E-03 -2.3282E-03  1.0239E-02  -13.142
    50    6   0.8001   0.0000   0.0000  0.04756   1.0505E-02 -2.4522E-03  1.0788E-02  -13.139
    51    6   0.8001   0.0476   0.0000  0.04756   9.9713E-03 -2.3282E-03  1.0239E-02  -13.142
    52    6   0.8001   0.0951   0.0000  0.04756   8.4030E-03 -1.9636E-03  8.6294E-03  -13.152
    53    6   0.8001   0.1427   0.0000  0.04756   5.8909E-03 -1.3784E-03  6.0500E-03  -13.170
    54    6   0.8001   0.1902   0.0000  0.04756   2.4173E-03 -5.6675E-04  2.4829E-03  -13.195
    55    7   1.0001  -0.1902   0.0000  0.04756  -1.7160E-03 -2.8246E-03  3.3050E-03 -121.279
    56    7   1.0001  -0.1427   0.0000  0.04756  -4.2056E-03 -6.8831E-03  8.0662E-03 -121.425
    57    7   1.0001  -0.0951   0.0000  0.04756  -6.0253E-03 -9.8177E-03  1.1519E-02 -121.538
    58    7   1.0001  -0.0476   0.0000  0.04756  -7.1690E-03 -1.1649E-02  1.3678E-02 -121.608
    59    7   1.0001   0.0000   0.0000  0.04756  -7.5599E-03 -1.2273E-02  1.4415E-02 -121.632
    60    7   1.0001   0.0476   0.0000  0.04756  -7.1690E-03 -1.1649E-02  1.3678E-02 -121.608
    61    7   1.0001   0.0951   0.0000  0.04756  -6.0253E-03 -9.8177E-03  1.1519E-02 -121.538
    62    7   1.0001   0.1427   0.0000  0.04756  -4.2056E-03 -6.8831E-03  8.0662E-03 -121.425
    63    7   1.0001   0.1902   0.0000  0.04756  -1.7160E-03 -2.8246E-03  3.3050E-03 -121.279
    64   51   0.0482   0.0000  -0.2179  0.05446  -1.9835E-03  1.5815E-03  2.5368E-03  141.433
    65   51   0.0482   0.0000  -0.1634  0.05446  -5.0464E-03  3.9628E-03  6.4164E-03  141.858
    66   51   0.0482   0.0000  -0.1089  0.05446  -7.4053E-03  5.7464E-03  9.3734E-03  142.189
    67   51   0.0482   0.0000  -0.0545  0.05446  -8.9328E-03  6.8808E-03  1.1276E-02  142.394
    68   51   0.0482   0.0000   0.0000  0.05446  -9.4624E-03  7.2705E-03  1.1933E-02  142.463
    69   51   0.0482   0.0000   0.0545  0.05446  -8.9328E-03  6.8808E-03  1.1276E-02  142.394
    70   51   0.0482   0.0000   0.1089  0.05446  -7.4053E-03  5.7464E-03  9.3734E-03  142.189
    71   51   0.0482   0.0000   0.1634  0.05446  -5.0464E-03  3.9628E-03  6.4164E-03  141.858
    72   51   0.0482   0.0000   0.2179  0.05446  -1.9835E-03  1.5815E-03  2.5368E-03  141.433
    73   52   0.2482   0.0000  -0.2067  0.05168   6.5470E-03  6.7667E-05  6.5473E-03    0.592
    74   52   0.2482   0.0000  -0.1550  0.05168   1.6289E-02  3.4379E-04  1.6293E-02    1.209
    75   52   0.2482   0.0000  -0.1034  0.05168   2.3540E-02  7.9401E-04  2.3554E-02    1.932
    76   52   0.2482   0.0000  -0.0517  0.05168   2.8141E-02  1.4104E-03  2.8176E-02    2.869
    77   52   0.2482   0.0000   0.0000  0.05168   2.9720E-02  2.0198E-03  2.9789E-02    3.888
    78   52   0.2482   0.0000   0.0517  0.05168   2.8141E-02  1.4104E-03  2.8176E-02    2.869
    79   52   0.2482   0.0000   0.1034  0.05168   2.3540E-02  7.9401E-04  2.3554E-02    1.932
    80   52   0.2482   0.0000   0.1550  0.05168   1.6289E-02  3.4379E-04  1.6293E-02    1.209
    81   52   0.2482   0.0000   0.2067  0.05168   6.5470E-03  6.7667E-05  6.5473E-03    0.592
    82   53   0.4482   0.0000  -0.1931  0.04828  -2.9190E-03 -3.2295E-03  4.3532E-03 -132.109
    83   53   0.4482   0.0000  -0.1448  0.04828  -7.1700E-03 -7.9191E-03  1.0683E-02 -132.158
    84   53   0.4482   0.0000  -0.0966  0.04828  -1.0284E-02 -1.1344E-02  1.5311E-02 -132.193
    85   53   0.4482   0.0000  -0.0483  0.04828  -1.2242E-02 -1.3495E-02  1.8220E-02 -132.213
    86   53   0.4482   0.0000   0.0000  0.04828  -1.2911E-02 -1.4229E-02  1.9214E-02 -132.220
    87   53   0.4482   0.0000   0.0483  0.04828  -1.2242E-02 -1.3495E-02  1.8220E-02 -132.213
    88   53   0.4482   0.0000   0.0966  0.04828  -1.0284E-02 -1.1344E-02  1.5311E-02 -132.193
    89   53   0.4482   0.0000   0.1448  0.04828  -7.1700E-03 -7.9191E-03  1.0683E-02 -132.158
    90   53   0.4482   0.0000   0.1931  0.04828  -2.9190E-03 -3.2295E-03  4.3532E-03 -132.109
    91   54   0.6483   0.0000  -0.1902  0.04756  -2.3143E-03  1.1308E-03  2.5758E-03  153.959
    92   54   0.6483   0.0000  -0.1427  0.04756  -5.6451E-03  2.7591E-03  6.2833E-03  153.952
    93   54   0.6483   0.0000  -0.0951  0.04756  -8.0577E-03  3.9396E-03  8.9692E-03  153.945
    94   54   0.6483   0.0000  -0.0476  0.04756  -9.5650E-03  4.6776E-03  1.0648E-02  153.940
    95   54   0.6483   0.0000   0.0000  0.04756  -1.0079E-02  4.9291E-03  1.1219E-02  153.938
    96   54   0.6483   0.0000   0.0476  0.04756  -9.5650E-03  4.6776E-03  1.0648E-02  153.940
    97   54   0.6483   0.0000   0.0951  0.04756  -8.0577E-03  3.9396E-03  8.9692E-03  153.945
    98   54   0.6483   0.0000   0.1427  0.04756  -5.6451E-03  2.7591E-03  6.2833E-03  153.952
    99   54   0.6483   0.0000   0.1902  0.04756  -2.3143E-03  1.1308E-03  2.5758E-03  153.959
   100   55   0.8483   0.0000  -0.1902  0.04756   1.9899E-03  2.7162E-03  3.3671E-03   53.773
   101   55   0.8483   0.0000  -0.1427  0.04756   4.8498E-03  6.6243E-03  8.2098E-03   53.791
   102   55   0.8483   0.0000  -0.0951  0.04756   6.9188E-03  9.4543E-03  1.1716E-02   53.803
   103   55   0.8483   0.0000  -0.0476  0.04756   8.2108E-03  1.1222E-02  1.3905E-02   53.809
   104   55   0.8483   0.0000   0.0000  0.04756   8.6509E-03  1.1825E-02  1.4651E-02   53.811
   105   55   0.8483   0.0000   0.0476  0.04756   8.2108E-03  1.1222E-02  1.3905E-02   53.809
   106   55   0.8483   0.0000   0.0951  0.04756   6.9188E-03  9.4543E-03  1.1716E-02   53.803
   107   55   0.8483   0.0000   0.1427  0.04756   4.8498E-03  6.6243E-03  8.2098E-03   53.791
   108   55   0.8483   0.0000   0.1902  0.04756   1.9899E-03  2.7162E-03  3.3671E-03   53.773
   109   56   1.0483   0.0000  -0.1902  0.04756   2.4173E-03 -5.6675E-04  2.4829E-03  -13.195
   110   56   1.0483   0.0000  -0.1427  0.04756   5.8909E-03 -1.3784E-03  6.0500E-03  -13.170
   111   56   1.0483   0.0000  -0.0951  0.04756   8.4030E-03 -1.9636E-03  8.6294E-03  -13.152
   112   56   1.0483   0.0000  -0.0476  0.04756   9.9713E-03 -2.3282E-03  1.0239E-02  -13.142
   113   56   1.0483   0.0000   0.0000  0.04756   1.0505E-02 -2.4522E-03  1.0788E-02  -13.139
   114   56   1.0483   0.0000   0.0476  0.04756   9.9713E-03 -2.3282E-03  1.0239E-02  -13.142
   115   56   1.0483   0.0000   0.0951  0.04756   8.4030E-03 -1.9636E-03  8.6294E-03  -13.152
   116   56   1.0483   0.0000   0.1427  0.04756   5.8909E-03 -1.3784E-03  6.0500E-03  -13.170
   117   56   1.0483   0.0000   0.1902  0.04756   2.4173E-03 -5.6675E-04  2.4829E-03  -13.195
   118   57   1.2483   0.0000  -0.1902  0.04756  -1.7160E-03 -2.8246E-03  3.3050E-03 -121.279
   119   57   1.2483   0.0000  -0.1427  0.04756  -4.2056E-03 -6.8831E-03  8.0662E-03 -121.425
   120   57   1.2483   0.0000  -0.0951  0.04756  -6.0253E-03 -9.8177E-03  1.1519E-02 -121.538
   121   57   1.2483   0.0000  -0.0476  0.04756  -7.1690E-03 -1.1649E-02  1.3678E-02 -121.608
   122   57   1.2483   0.0000   0.0000  0.04756  -7.5599E-03 -1.2273E-02  1.4415E-02 -121.632
   123   57   1.2483   0.0000   0.0476  0.04756  -7.1690E-03 -1.1649E-02  1.3678E-02 -121.608
   124   57   1.2483   0.0000   0.0951  0.04756  -6.0253E-03 -9.8177E-03  1.1519E-02 -121.538
   125   57   1.2483   0.0000   0.1427  0.04756  -4.2056E-03 -6.8831E-03  8.0662E-03 -121.425
   126   57   1.2483   0.0000   0.1902  0.04756  -1.7160E-03 -2.8246E-03  3.3050E-03 -121.279



                                        - - - POWER BUDGET - - -

                                           INPUT POWER   = 2.9720E-02 WATTS
                                           RADIATED POWER= 2.9720E-02 WATTS
                                           STRUCTURE LOSS= 0.0000E+00 WATTS
                                           NETWORK LOSS  = 0.0000E+00 WATTS
                                           EFFICIENCY    = 100.00 PERCENT



                                                - - - RADIATION PATTERNS - - -

  - - ANGLES - -           - POWER GAINS -       - - - POLARIZATION - - -    - - - E(THETA) - - -    - - - E(PHI) - - -
  THETA     PHI        VERT.   HOR.    TOTAL      AXIAL     TILT   SENSE     MAGNITUDE    PHASE      MAGNITUDE    PHASE 
 DEGREES  DEGREES       DB      DB      DB        RATIO     DEG.              VOLTS/M    DEGREES      VOLTS/M    DEGREES
   90.00     0.00     8.74     8.74   11.752    0.98890   -45.00  LEFT      3.65225E+00   130.91    3.65225E+00  -138.45
   90.00     1.00     8.74     8.74   11.748    0.98867   -44.47  LEFT      3.65075E+00   130.87    3.64998E+00  -138.47
   90.00     2.00     8.73     8.72   11.735    0.98796   -43.01  LEFT      3.64624E+00   130.77    3.64317E+00  -138.54
   90.00     3.00     8.71     8.69   11.712    0.98671   -40.93  LEFT      3.63874E+00   130.59    3.63185E+00  -138.65
   90.00     4.00     8.68     8.66   11.681    0.98487   -38.61  LEFT      3.62822E+00   130.34    3.61601E+00  -138.81
   90.00     5.00     8.65     8.61   11.640    0.98241   -36.37  LEFT      3.61469E+00   130.02    3.59570E+00  -139.01
   90.00     6.00     8.61     8.55   11.590    0.97930   -34.37  LEFT      3.59813E+00   129.63    3.57094E+00  -139.26
   90.00     7.00     8.57     8.48   11.531    0.97555   -32.67  LEFT      3.57853E+00   129.16    3.54178E+00  -139.55
   90.00     8.00     8.51     8.39   11.462    0.97117   -31.27  LEFT      3.55589E+00   128.63    3.50826E+00  -139.88
   90.00     9.00     8.45     8.30   11.384    0.96617   -30.13  LEFT      3.53019E+00   128.02    3.47045E+00  -140.26
   90.00    10.00     8.38     8.19   11.296    0.96058   -29.20  LEFT      3.50142E+00   127.35    3.42841E+00  -140.69
   90.00    11.00     8.30     8.08   11.197    0.95440   -28.43  LEFT      3.46956E+00   126.60    3.38222E+00  -141.16
   90.00    12.00     8.21     7.94   11.089    0.94766   -27.80  LEFT      3.43461E+00   125.78    3.33195E+00  -141.68
   90.00    13.00     8.11     7.80   10.970    0.94037   -27.28  LEFT      3.39655E+00   124.89    3.27771E+00  -142.24
   90.00    14.00     8.01     7.65   10.840    0.93255   -26.84  LEFT      3.35536E+00   123.93    3.21959E+00  -142.85
   90.00    15.00     7.89     7.48   10.700    0.92422   -26.47  LEFT      3.31105E+00   122.90    3.15770E+00  -143.50
   90.00    16.00     7.76     7.30   10.547    0.91540   -26.15  LEFT      3.26360E+00   121.80    3.09217E+00  -144.20
   90.00    17.00     7.63     7.10   10.383    0.90609   -25.88  LEFT      3.21302E+00   120.62    3.02312E+00  -144.94
   90.00    18.00     7.48     6.89   10.207    0.89633   -25.64  LEFT      3.15929E+00   119.38    2.95070E+00  -145.73
   90.00    19.00     7.33     6.66   10.017    0.88613   -25.42  LEFT      3.10242E+00   118.06    2.87506E+00  -146.57
   90.00    20.00     7.16     6.42    9.815    0.87550   -25.23  LEFT      3.04243E+00   116.68    2.79636E+00  -147.45
   90.00    21.00     6.97     6.17    9.599    0.86447   -25.06  LEFT      2.97933E+00   115.22    2.71477E+00  -148.38
   90.00    22.00     6.78     5.89    9.368    0.85306   -24.90  LEFT      2.91314E+00   113.69    2.63047E+00  -149.36
   90.00    23.00     6.57     5.60    9.122    0.84129   -24.76  LEFT      2.84388E+00   112.09    2.54365E+00  -150.38
   90.00    24.00     6.35     5.29    8.860    0.82917   -24.62  LEFT      2.77159E+00   110.43    2.45451E+00  -151.45
   90.00    25.00     6.11     4.96    8.582    0.81672   -24.49  LEFT      2.69631E+00   108.68    2.36327E+00  -152.57
   90.00    26.00     5.85     4.61    8.286    0.80398   -24.37  LEFT      2.61811E+00   106.87    2.27014E+00  -153.74
   90.00    27.00     5.58     4.24    7.971    0.79095   -24.25  LEFT      2.53703E+00   104.99    2.17535E+00  -154.96
   90.00    28.00     5.29     3.85    7.637    0.77766   -24.14  LEFT      2.45315E+00   103.03    2.07915E+00  -156.23
   90.00    29.00     4.97     3.43    7.281    0.76413   -24.03  LEFT      2.36655E+00   101.00    1.98176E+00  -157.55
   90.00    30.00     4.64     2.99    6.903    0.75038   -23.92  LEFT      2.27734E+00    98.90    1.88345E+00  -158.93
   90.00    31.00     4.28     2.52    6.501    0.73644   -23.81  LEFT      2.18560E+00    96.72    1.78448E+00  -160.36
   90.00    32.00     3.90     2.02    6.073    0.72232   -23.70  LEFT      2.09148E+00    94.46    1.68510E+00  -161.84
   90.00    33.00     3.49     1.49    5.616    0.70805   -23.59  LEFT      1.99508E+00    92.13    1.58560E+00  -163.39
   90.00    34.00     3.05     0.93    5.130    0.69365   -23.48  LEFT      1.89657E+00    89.72    1.48623E+00  -164.99
   90.00    35.00     2.58     0.33    4.609    0.67916   -23.37  LEFT      1.79610E+00    87.23    1.38727E+00  -166.66
   90.00    36.00     2.07    -0.30    4.053    0.66459   -23.26  LEFT      1.69384E+00    84.65    1.28901E+00  -168.40
   90.00    37.00     1.52    -0.99    3.455    0.64998   -23.14  LEFT      1.58997E+00    81.98    1.19172E+00  -170.22
[...]
   90.00    73.00    -1.08   -13.63   -0.848    0.10207   -12.01  LEFT      1.13953E+00   108.41    2.68825E-01   -98.47
   90.00    74.00    -1.26   -14.33   -1.052    0.09180   -11.43  LEFT      1.11643E+00   103.70    2.47847E-01  -101.79
   90.00    75.00    -1.48   -15.11   -1.296    0.08197   -10.83  LEFT      1.08860E+00    98.97    2.26534E-01  -105.12
   90.00    76.00    -1.74   -15.98   -1.581    0.07258   -10.21  LEFT      1.05632E+00    94.22    2.05134E-01  -108.48
   90.00    77.00    -2.05   -16.93   -1.907    0.06368    -9.58  LEFT      1.01987E+00    89.44    1.83884E-01  -111.86
   90.00    78.00    -2.40   -17.97   -2.278    0.05528    -8.92  LEFT      9.79561E-01    84.64    1.63009E-01  -115.26
   90.00    79.00    -2.79   -19.13   -2.695    0.04741    -8.25  LEFT      9.35711E-01    79.80    1.42719E-01  -118.70
   90.00    80.00    -3.24   -20.40   -3.160    0.04009    -7.56  LEFT      8.88663E-01    74.93    1.23207E-01  -122.18
   90.00    81.00    -3.74   -21.82   -3.677    0.03334    -6.86  LEFT      8.38771E-01    70.02    1.04650E-01  -125.71
   90.00    82.00    -4.30   -23.41   -4.251    0.02719    -6.14  LEFT      7.86399E-01    65.07    8.72058E-02  -129.29
   90.00    83.00    -4.93   -25.19   -4.887    0.02164    -5.40  LEFT      7.31917E-01    60.06    7.10133E-02  -132.94
   90.00    84.00    -5.62   -27.22   -5.592    0.01672    -4.66  LEFT      6.75700E-01    55.01    5.61901E-02  -136.67
   90.00    85.00    -6.40   -29.58   -6.375    0.01242    -3.90  LEFT      6.18123E-01    49.88    4.28338E-02  -140.49
   90.00    86.00    -7.26   -32.38   -7.247    0.00876    -3.13  LEFT      5.59560E-01    44.68    3.10208E-02  -144.44
   90.00    87.00    -8.23   -35.85   -8.224    0.00572    -2.36  LEFT      5.00381E-01    39.39    2.08067E-02  -148.53
   90.00    88.00    -9.33   -40.47   -9.326    0.00328    -1.58  LEFT      4.40948E-01    33.97    1.22261E-02  -152.84
   90.00    89.00   -10.58   -47.74  -10.584    0.00140    -0.79  LEFT      3.81617E-01    28.39    5.29291E-03  -157.42
   90.00    90.00   -12.04  -999.99  -12.040    0.00000     0.00  LINEAR    3.22736E-01    22.58    1.31012E-12    17.57
   90.00    91.00   -13.76   -50.90  -13.763    0.00109     0.79  RIGHT     2.64652E-01    16.40    3.68178E-03    11.92
   90.00    92.00   -15.87   -46.94  -15.864    0.00218     1.60  RIGHT     2.07721E-01     9.62    5.80775E-03     5.14
   90.00    93.00   -18.56   -45.99  -18.552    0.00402     2.42  RIGHT     1.52368E-01     1.63    6.47349E-03    -3.81
   90.00    94.00   -22.28   -46.84  -22.264    0.00864     3.35  RIGHT     9.92955E-02    -9.35    5.87089E-03   -17.79
   90.00    95.00   -28.08   -49.02  -28.041    0.02164     4.97  RIGHT     5.09402E-02   -31.60    4.56802E-03   -45.68
   90.00    96.00   -32.88   -48.94  -32.770    0.03036     8.77  LEFT      2.93128E-02  -109.80    4.61094E-03   -98.40
   90.00    97.00   -26.16   -44.16  -26.093    0.05211     6.54  LEFT      6.35007E-02  -162.34    7.99201E-03  -137.54
   90.00    98.00   -21.63   -39.61  -21.558    0.04823     6.65  LEFT      1.07038E-01  -178.70    1.34998E-02  -155.89
   90.00    99.00   -18.70   -36.06  -18.624    0.04955     7.19  LEFT      1.49863E-01   171.55    2.03111E-02  -166.65
   90.00   100.00   -16.61   -33.24  -16.517    0.05360     7.82  LEFT      1.90697E-01   163.83    2.81250E-02  -174.44
   90.00   101.00   -15.01   -30.91  -14.904    0.05928     8.48  LEFT      2.29174E-01   156.99    3.67663E-02   179.18
   90.00   102.00   -13.75   -28.94  -13.618    0.06613     9.13  LEFT      2.65145E-01   150.57    4.60959E-02   173.54
   90.00   103.00   -12.72   -27.26  -12.567    0.07390     9.78  LEFT      2.98545E-01   144.40    5.59894E-02   168.33
   90.00   104.00   -11.86   -25.78  -11.691    0.08244    10.41  LEFT      3.29355E-01   138.37    6.63306E-02   163.40
   90.00   105.00   -11.15   -24.49  -10.953    0.09168    11.03  LEFT      3.57591E-01   132.42    7.70106E-02   158.63
   90.00   106.00   -10.55   -23.33  -10.324    0.10153    11.63  LEFT      3.83294E-01   126.51    8.79271E-02   153.97
   90.00   107.00   -10.04   -22.31   -9.785    0.11194    12.21  LEFT      4.06526E-01   120.64    9.89855E-02   149.39
   90.00   108.00    -9.60   -21.38   -9.322    0.12288    12.76  LEFT      4.27367E-01   114.78    1.10098E-01   144.85
   90.00   109.00    -9.23   -20.55   -8.923    0.13429    13.30  LEFT      4.45911E-01   108.93    1.21187E-01   140.35
   90.00   110.00    -8.92   -19.79   -8.578    0.14615    13.82  LEFT      4.62262E-01   103.08    1.32179E-01   135.86
   90.00   111.00    -8.66   -19.11   -8.281    0.15842    14.32  LEFT      4.76536E-01    97.23    1.43013E-01   131.38
   90.00   112.00    -8.43   -18.49   -8.025    0.17107    14.79  LEFT      4.88851E-01    91.38    1.53634E-01   126.90
   90.00   113.00    -8.25   -17.92   -7.805    0.18406    15.24  LEFT      4.99328E-01    85.52    1.63992E-01   122.43
   90.00   114.00    -8.10   -17.40   -7.617    0.19738    15.67  LEFT      5.08089E-01    79.67    1.74048E-01   117.96
   90.00   115.00    -7.98   -16.93   -7.457    0.21098    16.09  LEFT      5.15253E-01    73.83    1.83766E-01   113.50
   90.00   116.00    -7.88   -16.50   -7.322    0.22485    16.48  LEFT      5.20931E-01    67.99    1.93117E-01   109.04
   90.00   117.00    -7.81   -16.11   -7.211    0.23896    16.85  LEFT      5.25232E-01    62.17    2.02073E-01   104.59
   90.00   118.00    -7.76   -15.75   -7.120    0.25328    17.20  LEFT      5.28250E-01    56.37    2.10612E-01   100.15
   90.00   119.00    -7.73   -15.42   -7.048    0.26779    17.53  LEFT      5.30073E-01    50.60    2.18713E-01    95.72
   90.00   120.00    -7.72   -15.12   -6.993    0.28247    17.84  LEFT      5.30775E-01    44.86    2.26354E-01    91.32
   90.00   121.00    -7.72   -14.85   -6.955    0.29729    18.13  LEFT      5.30420E-01    39.16    2.33513E-01    86.95
   90.00   122.00    -7.75   -14.61   -6.933    0.31224    18.41  LEFT      5.29059E-01    33.51    2.40170E-01    82.61
   90.00   123.00    -7.79   -14.39   -6.927    0.32731    18.67  LEFT      5.26732E-01    27.91    2.46298E-01    78.31
   90.00   124.00    -7.84   -14.19   -6.935    0.34246    18.92  LEFT      5.23467E-01    22.37    2.51873E-01    74.05
   90.00   125.00    -7.91   -14.02   -6.959    0.35769    19.14  LEFT      5.19282E-01    16.90    2.56863E-01    69.84
   90.00   126.00    -7.99   -13.88   -6.998    0.37298    19.36  LEFT      5.14188E-01    11.51    2.61237E-01    65.68
   90.00   127.00    -8.10   -13.75   -7.052    0.38833    19.56  LEFT      5.08189E-01     6.19    2.64959E-01    61.59
   90.00   128.00    -8.22   -13.65   -7.124    0.40371    19.75  LEFT      5.01280E-01     0.95    2.67994E-01    57.56
   90.00   129.00    -8.35   -13.58   -7.213    0.41911    19.92  LEFT      4.93456E-01    -4.20    2.70300E-01    53.59
   90.00   130.00    -8.51   -13.53   -7.320    0.43453    20.08  LEFT      4.84708E-01    -9.25    2.71838E-01    49.70
   90.00   131.00    -8.68   -13.51   -7.447    0.44995    20.23  LEFT      4.75027E-01   -14.22    2.72567E-01    45.87
   90.00   132.00    -8.88   -13.51   -7.595    0.46536    20.37  LEFT      4.64406E-01   -19.09    2.72446E-01    42.13
   90.00   133.00    -9.10   -13.54   -7.765    0.48074    20.50  LEFT      4.52837E-01   -23.86    2.71436E-01    38.45
   90.00   134.00    -9.34   -13.61   -7.960    0.49609    20.62  LEFT      4.40319E-01   -28.54    2.69499E-01    34.86
   90.00   135.00    -9.61   -13.70   -8.181    0.51138    20.73  LEFT      4.26855E-01   -33.12    2.66602E-01    31.33
   90.00   136.00    -9.91   -13.83   -8.431    0.52661    20.83  LEFT      4.12451E-01   -37.60    2.62715E-01    27.88
   90.00   137.00   -10.24   -13.99   -8.711    0.54175    20.91  LEFT      3.97122E-01   -42.00    2.57813E-01    24.50
   90.00   138.00   -10.60   -14.19   -9.026    0.55679    20.99  LEFT      3.80887E-01   -46.29    2.51876E-01    21.19
   90.00   139.00   -11.00   -14.44   -9.377    0.57170    21.06  LEFT      3.63772E-01   -50.51    2.44891E-01    17.94
   90.00   140.00   -11.44   -14.73   -9.770    0.58645    21.12  LEFT      3.45811E-01   -54.63    2.36851E-01    14.75
   90.00   141.00   -11.93   -15.07  -10.208    0.60101    21.18  LEFT      3.27045E-01   -58.69    2.27759E-01    11.62
   90.00   142.00   -12.46   -15.46  -10.697    0.61534    21.22  LEFT      3.07518E-01   -62.67    2.17623E-01     8.52
   90.00   143.00   -13.05   -15.92  -11.243    0.62940    21.25  LEFT      2.87286E-01   -66.59    2.06460E-01     5.45
   90.00   144.00   -13.71   -16.45  -11.854    0.64313    21.28  LEFT      2.66406E-01   -70.48    1.94296E-01     2.39
   90.00   145.00   -14.44   -17.06  -12.541    0.65644    21.30  LEFT      2.44944E-01   -74.33    1.81167E-01    -0.68
   90.00   146.00   -15.25   -17.76  -13.316    0.66923    21.31  LEFT      2.22972E-01   -78.19    1.67118E-01    -3.80
   90.00   147.00   -16.17   -18.57  -14.197    0.68136    21.32  LEFT      2.00568E-01   -82.09    1.52203E-01    -7.00
   90.00   148.00   -17.22   -19.52  -15.206    0.69262    21.34  LEFT      1.77818E-01   -86.09    1.36492E-01   -10.37
   90.00   149.00   -18.42   -20.63  -16.376    0.70269    21.37  LEFT      1.54819E-01   -90.28    1.20068E-01   -14.02
   90.00   150.00   -19.83   -21.96  -17.752    0.71104    21.46  LEFT      1.31684E-01   -94.83    1.03041E-01   -18.15
   90.00   151.00   -21.50   -23.57  -19.405    0.71680    21.67  LEFT      1.08560E-01  -100.01    8.55651E-02   -23.11
   90.00   152.00   -23.56   -25.58  -21.445    0.71834    22.16  LEFT      8.56621E-02  -106.41    6.78896E-02   -29.65
   90.00   153.00   -26.18   -28.15  -24.040    0.71265    23.42  LEFT      6.34010E-02  -115.40    5.05210E-02   -39.53
   90.00   154.00   -29.58   -31.38  -27.377    0.69608    26.98  LEFT      4.28431E-02  -130.77    3.48263E-02   -57.44
   90.00   155.00   -33.32   -34.16  -30.709    0.69153    37.10  LEFT      2.78483E-02  -163.50    2.52903E-02   -93.45
   90.00   156.00   -33.11   -32.83  -29.957    0.79385    49.01  LEFT      2.85435E-02   145.54    2.94626E-02  -137.45
   90.00   157.00   -29.40   -29.39  -26.382    0.87999    45.31  LEFT      4.37479E-02   115.24    4.38074E-02  -162.07
   90.00   158.00   -26.17   -26.42  -23.286    0.90454    36.75  LEFT      6.34049E-02   101.13    6.16300E-02  -174.37
   90.00   159.00   -23.72   -24.09  -20.893    0.91185    31.34  LEFT      8.40734E-02    93.07    8.05937E-02   178.38
   90.00   160.00   -21.81   -22.22  -19.002    0.91697    28.31  LEFT      1.04793E-01    87.61    9.99217E-02   173.46
   90.00   161.00   -20.27   -20.69  -17.461    0.92255    26.46  LEFT      1.25194E-01    83.49    1.19264E-01   169.81
   90.00   162.00   -18.99   -19.39  -16.174    0.92876    25.20  LEFT      1.45081E-01    80.18    1.38410E-01   166.91
   90.00   163.00   -17.90   -18.29  -15.081    0.93537    24.22  LEFT      1.64329E-01    77.39    1.57209E-01   164.53
   90.00   164.00   -16.98   -17.33  -14.139    0.94218    23.37  LEFT      1.82845E-01    74.98    1.75536E-01   162.50
   90.00   165.00   -16.17   -16.49  -13.320    0.94899    22.56  LEFT      2.00552E-01    72.87    1.93282E-01   160.74
   90.00   166.00   -15.47   -15.76  -12.603    0.95568    21.72  LEFT      2.17385E-01    70.99    2.10348E-01   159.21
   90.00   167.00   -14.86   -15.11  -11.973    0.96214    20.76  LEFT      2.33286E-01    69.32    2.26642E-01   157.85
   90.00   168.00   -14.32   -14.54  -11.418    0.96827    19.60  LEFT      2.48203E-01    67.81    2.42078E-01   156.64
   90.00   169.00   -13.85   -14.03  -10.929    0.97402    18.09  LEFT      2.62089E-01    66.47    2.56579E-01   155.57
   90.00   170.00   -13.43   -13.59  -10.500    0.97930    16.01  LEFT      2.74903E-01    65.26    2.70071E-01   154.63
   90.00   171.00   -13.07   -13.20  -10.124    0.98402    12.98  LEFT      2.86606E-01    64.19    2.82486E-01   153.79
   90.00   172.00   -12.76   -12.86   -9.797    0.98806     8.25  LEFT      2.97166E-01    63.25    2.93763E-01   153.05
   90.00   173.00   -12.49   -12.56   -9.515    0.99117     0.61  LEFT      3.06553E-01    62.43    3.03846E-01   152.42
   90.00   174.00   -12.26   -12.32   -9.276    0.99298   -10.89  LEFT      3.14740E-01    61.72    3.12686E-01   151.87
   90.00   175.00   -12.07   -12.11   -9.078    0.99326   -23.80  LEFT      3.21705E-01    61.13    3.20240E-01   151.41
   90.00   176.00   -11.91   -11.94   -8.917    0.99249   -33.57  LEFT      3.27429E-01    60.65    3.26471E-01   151.04
   90.00   177.00   -11.80   -11.81   -8.794    0.99141   -39.48  LEFT      3.31897E-01    60.27    3.31349E-01   150.76
   90.00   178.00   -11.71   -11.72   -8.707    0.99046   -42.80  LEFT      3.35096E-01    60.01    3.34850E-01   150.56
   90.00   179.00   -11.66   -11.67   -8.655    0.98984   -44.48  LEFT      3.37020E-01    59.85    3.36958E-01   150.43
   90.00   180.00   -11.65   -11.65   -8.637    0.98963   -45.00  LEFT      3.37661E-01    59.80    3.37661E-01   150.39


                                     - - - - NORMALIZED GAIN - - - -

                                           TOTAL GAIN
                                      NORMALIZATION FACTOR =    12.10 DB

    - - ANGLES - -      GAIN           - - ANGLES - -      GAIN           - - ANGLES - -      GAIN
    THETA     PHI        DB            THETA     PHI        DB            THETA     PHI        DB
   DEGREES  DEGREES                   DEGREES  DEGREES                   DEGREES  DEGREES
     90.00     0.00      0.00           90.00    61.00    -13.71           90.00   121.00    -19.05
     90.00     1.00     -0.01           90.00    62.00    -13.38           90.00   122.00    -19.03
     90.00     2.00     -0.02           90.00    63.00    -13.12           90.00   123.00    -19.02
     90.00     3.00     -0.05           90.00    64.00    -12.90           90.00   124.00    -19.03
     90.00     4.00     -0.08           90.00    65.00    -12.74           90.00   125.00    -19.05
     90.00     5.00     -0.13           90.00    66.00    -12.62           90.00   126.00    -19.09
     90.00     6.00     -0.18           90.00    67.00    -12.54           90.00   127.00    -19.15
     90.00     7.00     -0.25           90.00    68.00    -12.51           90.00   128.00    -19.22
     90.00     8.00     -0.33           90.00    69.00    -12.52           90.00   129.00    -19.31
     90.00     9.00     -0.42           90.00    70.00    -12.56           90.00   130.00    -19.42
     90.00    10.00     -0.52           90.00    71.00    -12.65           90.00   131.00    -19.54
     90.00    11.00     -0.63           90.00    72.00    -12.78           90.00   132.00    -19.69
     90.00    12.00     -0.75           90.00    73.00    -12.94           90.00   133.00    -19.86
     90.00    13.00     -0.89           90.00    74.00    -13.15           90.00   134.00    -20.06
     90.00    14.00     -1.03           90.00    75.00    -13.39           90.00   135.00    -20.28
     90.00    15.00     -1.19           90.00    76.00    -13.68           90.00   136.00    -20.53
     90.00    16.00     -1.36           90.00    77.00    -14.00           90.00   137.00    -20.81
     90.00    17.00     -1.55           90.00    78.00    -14.37           90.00   138.00    -21.12
     90.00    18.00     -1.75           90.00    79.00    -14.79           90.00   139.00    -21.47
     90.00    19.00     -1.97           90.00    80.00    -15.25           90.00   140.00    -21.86
     90.00    20.00     -2.20           90.00    81.00    -15.77           90.00   141.00    -22.30
     90.00    21.00     -2.44           90.00    82.00    -16.35           90.00   142.00    -22.79
     90.00    22.00     -2.70           90.00    83.00    -16.98           90.00   143.00    -23.34
     90.00    23.00     -2.98           90.00    84.00    -17.69           90.00   144.00    -23.95
     90.00    24.00     -3.28           90.00    85.00    -18.47           90.00   145.00    -24.64
     90.00    25.00     -3.60           90.00    86.00    -19.34           90.00   146.00    -25.41
     90.00    26.00     -3.94           90.00    87.00    -20.32           90.00   147.00    -26.29
     90.00    27.00     -4.30           90.00    88.00    -21.42           90.00   148.00    -27.30
     90.00    28.00     -4.68           90.00    89.00    -22.68           90.00   149.00    -28.47
     90.00    29.00     -5.09           90.00    90.00    -24.14           90.00   150.00    -29.85
     90.00    30.00     -5.52           90.00    91.00    -25.86           90.00   151.00    -31.50
     90.00    31.00     -5.98           90.00    92.00    -27.96           90.00   152.00    -33.54
     90.00    32.00     -6.48           90.00    93.00    -30.65           90.00   153.00    -36.14
     90.00    33.00     -7.00           90.00    94.00    -34.36           90.00   154.00    -39.47
     90.00    34.00     -7.57           90.00    95.00    -40.14           90.00   155.00    -42.80
     90.00    35.00     -8.17           90.00    96.00    -44.86           90.00   156.00    -42.05
     90.00    36.00     -8.82           90.00    97.00    -38.19           90.00   157.00    -38.48
     90.00    37.00     -9.51           90.00    98.00    -33.65           90.00   158.00    -35.38
     90.00    38.00    -10.26           90.00    99.00    -30.72           90.00   159.00    -32.99
     90.00    39.00    -11.07           90.00   100.00    -28.61           90.00   160.00    -31.10
     90.00    40.00    -11.95           90.00   101.00    -27.00           90.00   161.00    -29.56
     90.00    41.00    -12.90           90.00   102.00    -25.71           90.00   162.00    -28.27
     90.00    42.00    -13.93           90.00   103.00    -24.66           90.00   163.00    -27.18
     90.00    43.00    -15.06           90.00   104.00    -23.79           90.00   164.00    -26.23
     90.00    44.00    -16.27           90.00   105.00    -23.05           90.00   165.00    -25.41
     90.00    45.00    -17.56           90.00   106.00    -22.42           90.00   166.00    -24.70
     90.00    46.00    -18.90           90.00   107.00    -21.88           90.00   167.00    -24.07
     90.00    47.00    -20.16           90.00   108.00    -21.42           90.00   168.00    -23.51
     90.00    48.00    -21.17           90.00   109.00    -21.02           90.00   169.00    -23.02
     90.00    49.00    -21.67           90.00   110.00    -20.67           90.00   170.00    -22.59
     90.00    50.00    -21.54           90.00   111.00    -20.38           90.00   171.00    -22.22
     90.00    51.00    -20.89           90.00   112.00    -20.12           90.00   172.00    -21.89
     90.00    52.00    -19.97           90.00   113.00    -19.90           90.00   173.00    -21.61
     90.00    53.00    -18.98           90.00   114.00    -19.71           90.00   174.00    -21.37
     90.00    54.00    -18.02           90.00   115.00    -19.55           90.00   175.00    -21.17
     90.00    55.00    -17.14           90.00   116.00    -19.42           90.00   176.00    -21.01
     90.00    56.00    -16.36           90.00   117.00    -19.31           90.00   177.00    -20.89
     90.00    57.00    -15.67           90.00   118.00    -19.21           90.00   178.00    -20.80
     90.00    58.00    -15.06           90.00   119.00    -19.14           90.00   179.00    -20.75
     90.00    59.00    -14.54           90.00   120.00    -19.09           90.00   180.00    -20.73
     90.00    60.00    -14.09
 ***** DATA CARD NO.   5 EN     0     0     0     0  0.00000E+00  0.00000E+00  0.00000E+00  0.00000E+00  0.00000E+00  0.00000E+00

 RUN TIME =     0.910
